CemigDFeeders/SFIQ410/SFIQ410SegmentosMT.dss
new line.TR1003582 bus1=BMT125223060.2,bus2=BMT125223067.2,Phases=1,Linecode=CAB202_3_1,Length=0.125950000,Units=km
new line.TR1003589 bus1=BMT125221821.2,bus2=BMT169713819.2,Phases=1,Linecode=CAB202_3_1,Length=0.166070000,Units=km
new line.TR1003596 bus1=BMT125223067.2,bus2=BMT125223074.2,Phases=1,Linecode=CAB103_3_1,Length=0.058750000,Units=km
new line.TR1003603 bus1=BMT125223067.2,bus2=BMT3681999B.2,Phases=1,Linecode=CAB202_3_1,Length=0.102220000,Units=km
new line.TR1003610 bus1=BMT169713821.2,bus2=BMT3684680B.2,Phases=1,Linecode=CAB202_3_1,Length=0.095670000,Units=km
new line.TR1003617 bus1=BMT169713821.2,bus2=BMT3684687B.2,Phases=1,Linecode=CAB202_3_1,Length=0.202560000,Units=km
new line.TR1003624 bus1=BMT125221856.2,bus2=BMT3684708B.2,Phases=1,Linecode=CAB202_3_1,Length=0.195890000,Units=km
new line.TR1003631 bus1=BMT125222955.2,bus2=BMT125222962.2,Phases=1,Linecode=CAB202_3_1,Length=0.172650000,Units=km
new line.TR1003638 bus1=BMT169713824.2,bus2=BMT169713825.2,Phases=1,Linecode=CAB103_3_1,Length=0.058030000,Units=km
new line.TR1003645 bus1=BMT169713824.2,bus2=BMT169713826.2,Phases=1,Linecode=CAB202_3_1,Length=0.169000000,Units=km
new line.TR1003652 bus1=BMT125221884.2,bus2=BMT125221905.2,Phases=1,Linecode=CAB202_3_1,Length=0.172260000,Units=km
new line.TR1003659 bus1=BMT125222941.2,bus2=BMT3684939B.2,Phases=1,Linecode=CAB202_3_1,Length=0.106110000,Units=km
new line.TR1003666 bus1=BMT125222780.2,bus2=BMT125222787.2,Phases=1,Linecode=CAB202_3_1,Length=0.133880000,Units=km
new line.TR1003673 bus1=BMT125221905.2,bus2=BMT3685058B.2,Phases=1,Linecode=CAB202_3_1,Length=0.128880000,Units=km
new line.TR1003680 bus1=BMT1752449B.2,bus2=BMT3685072B.2,Phases=1,Linecode=CAB202_3_1,Length=0.109190000,Units=km
new line.TR1003687 bus1=BMT125221947.2,bus2=BMT125221954.2,Phases=1,Linecode=CAB203_3_1,Length=0.123470000,Units=km
new line.TR1003694 bus1=BMT125221947.2,bus2=BMT3680802B.2,Phases=1,Linecode=CAB202_3_1,Length=0.115360000,Units=km
new line.TR1003701 bus1=BMT1752463B.2,bus2=BMT3680879B.2,Phases=1,Linecode=CAB202_3_1,Length=0.119140000,Units=km
new line.TR1003708 bus1=BMT1752470B.1,bus2=BMT3666347B.1,Phases=1,Linecode=CAB202_3_1,Length=0.152260000,Units=km
new line.TR1003715 bus1=BMT125210894.1,bus2=BMT3681159B.1,Phases=1,Linecode=CAB202_3_1,Length=0.060860000,Units=km
new line.TR1003722 bus1=BMT125210894.1.2.3,bus2=BMT3681271B.1.2.3,Phases=3,Linecode=CAB202_3_3,Length=0.169080000,Units=km
new line.TR1003729 bus1=BMT168454059.3,bus2=BMT168454060.3,Phases=1,Linecode=CAB202_3_1,Length=0.121680000,Units=km
new line.TR1003736 bus1=BMT125210908.1.2.3,bus2=BMT3681593B.1.2.3,Phases=3,Linecode=CAB202_3_3,Length=0.152960000,Units=km
new line.TR1003743 bus1=BMT125210915.1.2.3,bus2=BMT3682601B.1.2.3,Phases=3,Linecode=CAB202_3_3,Length=0.151550000,Units=km
new line.TR1003750 bus1=BMT134813648.1,bus2=BMT3682608B.1,Phases=1,Linecode=CAB203_3_1,Length=0.052180000,Units=km
new line.TR1003757 bus1=BMT168454060.3,bus2=BMT168454061.3,Phases=1,Linecode=CAB203_3_1,Length=0.092060000,Units=km
new line.TR1003764 bus1=BMT168454060.3,bus2=BMT125217649.3,Phases=1,Linecode=CAB202_3_1,Length=0.111910000,Units=km
new line.TR1003771 bus1=BMT168454060.3,bus2=BMT1752512B.3,Phases=1,Linecode=CAB202_3_1,Length=0.074330000,Units=km
new line.TR1003778 bus1=BMT125218188.3,bus2=BMT125218195.3,Phases=1,Linecode=CAB202_3_1,Length=0.059440000,Units=km
new line.TR1003785 bus1=BMT125217649.3,bus2=BMT3684568B.3,Phases=1,Linecode=CAB202_3_1,Length=0.176710000,Units=km
new line.TR1003792 bus1=BMT1752512B.3,bus2=BMT168454062.3,Phases=1,Linecode=CAB202_3_1,Length=0.055830000,Units=km
new line.TR1003799 bus1=BMT168454064.3,bus2=BMT168454066.3,Phases=1,Linecode=CAB202_3_1,Length=0.056000000,Units=km
new line.TR1003806 bus1=BMT168454064.3,bus2=BMT168454067.3,Phases=1,Linecode=CAB202_3_1,Length=0.184840000,Units=km
new line.TR1003813 bus1=BMT125217698.3,bus2=BMT168454070.3,Phases=1,Linecode=CAB202_3_1,Length=0.137670000,Units=km
new line.TR1003820 bus1=BMT125218132.3,bus2=BMT3684652B.3,Phases=1,Linecode=CAB202_3_1,Length=0.090290000,Units=km
new line.TR1003827 bus1=BMT125217698.3,bus2=BMT4870949B.3,Phases=1,Linecode=CAB202_3_1,Length=0.005660000,Units=km
new line.TR1003834 bus1=BMT168454070.3,bus2=BMT3684771B.3,Phases=1,Linecode=CAB202_3_1,Length=0.133900000,Units=km
new line.TR1003841 bus1=BMT168454070.3,bus2=BMT3684778B.3,Phases=1,Linecode=CAB202_3_1,Length=0.156300000,Units=km
new line.TR1003848 bus1=BMT168454073.3,bus2=BMT168454074.3,Phases=1,Linecode=CAB103_3_1,Length=0.063270000,Units=km
new line.TR1003855 bus1=BMT168454073.3,bus2=BMT3684792B.3,Phases=1,Linecode=CAB202_3_1,Length=0.158860000,Units=km
new line.TR1003862 bus1=BMT168454073.3,bus2=BMT168454076.3,Phases=1,Linecode=CAB103_3_1,Length=0.036360000,Units=km
new line.TR1003869 bus1=BMT168454075.3,bus2=BMT168454077.3,Phases=1,Linecode=CAB202_3_1,Length=0.075800000,Units=km
new line.TR1003876 bus1=BMT168454075.3,bus2=BMT168454078.3,Phases=1,Linecode=CAB103_3_1,Length=0.065080000,Units=km
new line.TR1003883 bus1=BMT168454077.3,bus2=BMT168454079.3,Phases=1,Linecode=CAB202_3_1,Length=0.114770000,Units=km
new line.TR1003890 bus1=BMT168454077.3,bus2=BMT1752561B.3,Phases=1,Linecode=CAB202_3_1,Length=0.122820000,Units=km
new line.TR1003897 bus1=BMT1752561B.3,bus2=BMT168454080.3,Phases=1,Linecode=CAB202_3_1,Length=0.158210000,Units=km
new line.TR1003904 bus1=BMT168454080.3,bus2=BMT168454081.3,Phases=1,Linecode=CAB103_3_1,Length=0.033440000,Units=km
new line.TR1003911 bus1=BMT168454080.3,bus2=BMT168452883.3,Phases=1,Linecode=CAB202_3_1,Length=0.225690000,Units=km
new line.TR1003918 bus1=BMT168454080.3,bus2=BMT125217796.3,Phases=1,Linecode=CAB202_3_1,Length=0.005390000,Units=km
new line.TR1003925 bus1=BMT125217901.3,bus2=BMT1752582B.3,Phases=1,Linecode=CAB202_3_1,Length=0.055180000,Units=km
new line.TR1003932 bus1=BMT125217901.3,bus2=BMT125217915.3,Phases=1,Linecode=CAB104_3_1,Length=0.041320000,Units=km
new line.TR1003939 bus1=BMT1752582B.3,bus2=BMT125217908.3,Phases=1,Linecode=CAB202_3_1,Length=0.060840000,Units=km
new line.TR1003946 bus1=BMT1752589B.3,bus2=BMT3685107B.3,Phases=1,Linecode=CAB202_3_1,Length=0.131240000,Units=km
new line.TR1003953 bus1=BMT125217929.3,bus2=BMT3682223B.3,Phases=1,Linecode=CAB202_3_1,Length=0.111130000,Units=km
new line.TR1003960 bus1=BMT125218104.3,bus2=BMT125218111.3,Phases=1,Linecode=CAB202_3_1,Length=0.086090000,Units=km
new line.TR1003967 bus1=BMT125217936.3,bus2=BMT125217943.3,Phases=1,Linecode=CAB103_3_1,Length=0.070860000,Units=km
new line.TR1003974 bus1=BMT125217936.3,bus2=BMT3682230B.3,Phases=1,Linecode=CAB202_3_1,Length=0.204490000,Units=km
new line.TR1003981 bus1=BMT125217957.3,bus2=BMT1752617B.3,Phases=1,Linecode=CAB202_3_1,Length=0.136540000,Units=km
new line.TR1003988 bus1=BMT125218055.3,bus2=BMT4621931B.3,Phases=1,Linecode=CAB202_3_1,Length=0.083900000,Units=km
new line.TR1003995 bus1=BMT1752617B.3,bus2=BMT125217964.3,Phases=1,Linecode=CAB202_3_1,Length=0.116340000,Units=km
new line.TR1004002 bus1=BMT125217978.3,bus2=BMT125217985.3,Phases=1,Linecode=CAB202_3_1,Length=0.134470000,Units=km
new line.TR1004009 bus1=BMT125217978.3,bus2=BMT125217992.3,Phases=1,Linecode=CAB103_3_1,Length=0.051940000,Units=km
new line.TR1004016 bus1=BMT125217488.1,bus2=BMT125217495.1,Phases=1,Linecode=CAB202_3_1,Length=0.134880000,Units=km
new line.TR1004023 bus1=BMT125210950.1.2.3,bus2=BMT3679486B.1.2.3,Phases=3,Linecode=CAB202_3_3,Length=0.105730000,Units=km
new line.TR1004030 bus1=BMT125217446.3,bus2=BMT3679752B.3,Phases=1,Linecode=CAB202_3_1,Length=0.082410000,Units=km
new line.TR1004037 bus1=BMT125210985.1.2.3,bus2=BMT3679892B.1.2.3,Phases=3,Linecode=CAB202_3_3,Length=0.102060000,Units=km
new line.TR1004044 bus1=BMT1752645B.1.2.3,bus2=BMT3679913B.1.2.3,Phases=3,Linecode=CAB202_3_3,Length=0.135880000,Units=km
new line.TR1004051 bus1=BMT125217453.3,bus2=BMT3679773B.3,Phases=1,Linecode=CAB202_3_1,Length=0.147690000,Units=km
new line.TR1004058 bus1=BMT125217453.3,bus2=BMT3679843B.3,Phases=1,Linecode=CAB202_3_1,Length=0.141410000,Units=km
new line.TR1004065 bus1=BMT125217432.1,bus2=BMT1752673B.1,Phases=1,Linecode=CAB202_3_1,Length=0.084790000,Units=km
new line.TR1004072 bus1=BMT125210992.1.2.3,bus2=BMT3680116B.1.2.3,Phases=3,Linecode=CAB202_3_3,Length=0.129370000,Units=km
new line.TR1004079 bus1=BMT125217404.3,bus2=BMT3680207B.3,Phases=1,Linecode=CAB202_3_1,Length=0.147400000,Units=km
new line.TR1004086 bus1=BMT125210999.1.2.3,bus2=BMT3691351B.1.2.3,Phases=3,Linecode=CAB202_3_3,Length=0.122090000,Units=km
new line.TR1004093 bus1=BMT1752673B.1,bus2=BMT3679962B.1,Phases=1,Linecode=CAB202_3_1,Length=0.175000000,Units=km
new line.TR1004100 bus1=BMT1752680B.1,bus2=BMT3680004B.1,Phases=1,Linecode=CAB202_3_1,Length=0.097660000,Units=km
new line.TR1004107 bus1=BMT125211006.1.2.3,bus2=BMT1752722B.1.2.3,Phases=3,Linecode=CAB202_3_3,Length=0.143280000,Units=km
new line.TR1004114 bus1=BMT168183339.1.2.3,bus2=BMT3115041B.1.2.3,Phases=3,Linecode=CAB202_3_3,Length=0.076140000,Units=km
new line.TR1004121 bus1=BMT1752694B.3,bus2=BMT125217411.3,Phases=1,Linecode=CAB202_3_1,Length=0.101180000,Units=km
new line.TR1004128 bus1=BMT125217411.3,bus2=BMT125217418.3,Phases=1,Linecode=CAB202_3_1,Length=0.068120000,Units=km
new line.TR1004135 bus1=BMT125217411.3,bus2=BMT3680242B.3,Phases=1,Linecode=CAB202_3_1,Length=0.106560000,Units=km
new line.TR1004142 bus1=BMT1752708B.3,bus2=BMT3680270B.3,Phases=1,Linecode=CAB202_3_1,Length=0.338910000,Units=km
new line.TR1004149 bus1=BMT168183340.2,bus2=BMT168183341.2,Phases=1,Linecode=CAB202_3_1,Length=0.116460000,Units=km
new line.TR1004156 bus1=BMT168183340.1.2.3,bus2=BMT3685674B.1.2.3,Phases=3,Linecode=CAB202_3_3,Length=0.062100000,Units=km
new line.TR1004163 bus1=BMT1752722B.1.2.3,bus2=BMT3691414B.1.2.3,Phases=3,Linecode=CAB202_3_3,Length=0.142940000,Units=km
new line.TR1004170 bus1=BMT165937104.3,bus2=BMT3691463B.3,Phases=1,Linecode=CAB202_3_1,Length=0.114480000,Units=km
new line.TR1004177 bus1=BMT165937104.1.2.3,bus2=BMT3692891B.1.2.3,Phases=3,Linecode=CAB202_3_3,Length=0.125770000,Units=km
new line.TR1004191 bus1=BMT133407334.1.2.3,bus2=BMT150075040.1.2.3,Phases=3,Linecode=CAB202_3_3,Length=0.156400000,Units=km
new line.TR1004198 bus1=BMT162376736.1,bus2=BMT3694340B.1,Phases=1,Linecode=CAB202_3_1,Length=0.116020000,Units=km
new line.TR1004205 bus1=BMT150113135.1.2.3,bus2=BMT1752764B.1.2.3,Phases=3,Linecode=CAB103_3_3,Length=0.064060000,Units=km
new line.TR1004212 bus1=BMT150075040.1.2.3,bus2=BMT165936987.1.2.3,Phases=3,Linecode=CAB202_3_3,Length=0.154500000,Units=km
new line.TR1004219 bus1=BMT162376737.1,bus2=BMT162376738.1,Phases=1,Linecode=CAB103_3_1,Length=0.077440000,Units=km
new line.TR1004226 bus1=BMT162376737.1,bus2=BMT162376739.1,Phases=1,Linecode=CAB202_3_1,Length=0.073460000,Units=km
new line.TR1004233 bus1=BMT1752764B.1.2.3,bus2=BMT150113136.1.2.3,Phases=3,Linecode=CAB103_3_3,Length=0.078670000,Units=km
new line.TR1004240 bus1=BMT165936988.1,bus2=BMT165936990.1,Phases=1,Linecode=CAB103_3_1,Length=0.019860000,Units=km
new line.TR1004247 bus1=BMT165936988.1.2.3,bus2=BMT3695894B.1.2.3,Phases=3,Linecode=CAB202_3_3,Length=0.147030000,Units=km
new line.TR1004254 bus1=BMT125211132.3,bus2=BMT125211139.3,Phases=1,Linecode=CAB202_3_1,Length=0.006000000,Units=km
new line.TR1004261 bus1=BMT125215199.1,bus2=BMT3665094B.1,Phases=1,Linecode=CAB202_3_1,Length=0.131280000,Units=km
new line.TR1004268 bus1=BMT125211132.1.2.3,bus2=BMT3696069B.1.2.3,Phases=3,Linecode=CAB202_3_3,Length=0.127330000,Units=km
new line.TR1004275 bus1=BMT125215227.1,bus2=BMT3665430B.1,Phases=1,Linecode=CAB202_3_1,Length=0.076970000,Units=km
new line.TR1004282 bus1=BMT133122567.3,bus2=BMT3218263B.3,Phases=1,Linecode=CAB202_3_1,Length=0.108010000,Units=km
new line.TR1004289 bus1=BMT125215115.1,bus2=BMT3680410B.1,Phases=1,Linecode=CAB202_3_1,Length=0.107380000,Units=km
new line.TR1004296 bus1=BMT125211153.3,bus2=BMT3696230B.3,Phases=1,Linecode=CAB103_3_1,Length=0.003000000,Units=km
new line.TR1004303 bus1=BMT125211153.1.2.3,bus2=BMT3696300B.1.2.3,Phases=3,Linecode=CAB202_3_3,Length=0.157750000,Units=km
new line.TR1004310 bus1=BMT1752806B.1.2.3,bus2=BMT125211167.1.2.3,Phases=3,Linecode=CAB202_3_3,Length=0.105460000,Units=km
new line.TR1004317 bus1=BMT164953605.1.2.3,bus2=BMT125211314.1.2.3,Phases=3,Linecode=CAB202_3_3,Length=0.139660000,Units=km
new line.TR1004324 bus1=BMT131940365.1.2.3,bus2=BMT131940372.1.2.3,Phases=3,Linecode=CAB202_3_3,Length=0.059970000,Units=km
new line.TR1004331 bus1=BMT125211314.1.2.3,bus2=BMT3696846B.1.2.3,Phases=3,Linecode=CAB202_3_3,Length=0.151230000,Units=km
new line.TR1004338 bus1=BMT164953606.2,bus2=BMT164953607.2,Phases=1,Linecode=CAB103_3_1,Length=0.081160000,Units=km
new line.TR1004345 bus1=BMT164953606.1.2.3,bus2=BMT164953608.1.2.3,Phases=3,Linecode=CAB202_3_3,Length=0.125830000,Units=km
new line.TR1004352 bus1=BMT131940372.2,bus2=BMT3697504B.2,Phases=1,Linecode=CAB103_3_1,Length=0.073460000,Units=km
new line.TR1004359 bus1=BMT131940372.1.2.3,bus2=BMT3698134B.1.2.3,Phases=3,Linecode=CAB202_3_3,Length=0.044310000,Units=km
new line.TR1004366 bus1=BMT131940393.1,bus2=BMT3698785B.1,Phases=1,Linecode=CAB202_3_1,Length=0.111490000,Units=km
new line.TR1004373 bus1=BMT131940393.1.2.3,bus2=BMT3698820B.1.2.3,Phases=3,Linecode=CAB202_3_3,Length=0.162070000,Units=km
new line.TR1004380 bus1=BMT125213477.1.2.3,bus2=BMT131940414.1.2.3,Phases=3,Linecode=CAB202_3_3,Length=0.166900000,Units=km
new line.TR1004387 bus1=BMT132259726.1,bus2=BMT3698827B.1,Phases=1,Linecode=CAB202_3_1,Length=0.123410000,Units=km
new line.TR1004394 bus1=BMT131940421.1,bus2=BMT3698834B.1,Phases=1,Linecode=CAB202_3_1,Length=0.115430000,Units=km
new line.TR1004401 bus1=BMT131940421.1.2.3,bus2=BMT3698883B.1.2.3,Phases=3,Linecode=CAB202_3_3,Length=0.157060000,Units=km
new line.TR1004408 bus1=BMT131940435.2,bus2=BMT131940442.2,Phases=1,Linecode=CAB202_3_1,Length=0.113060000,Units=km
new line.TR1004415 bus1=BMT131940435.1.2.3,bus2=BMT3698932B.1.2.3,Phases=3,Linecode=CAB202_3_3,Length=0.149060000,Units=km
new line.TR1004422 bus1=BMT1752869B.1.2.3,bus2=BMT125213526.1.2.3,Phases=3,Linecode=CAB202_3_3,Length=0.358200000,Units=km
new line.TR1004429 bus1=BMT125213526.1,bus2=BMT131940449.1,Phases=1,Linecode=CAB202_3_1,Length=0.100220000,Units=km
new line.TR1004436 bus1=BMT125213526.1.2.3,bus2=BMT131940456.1.2.3,Phases=3,Linecode=CAB202_3_3,Length=0.406280000,Units=km
new line.TR1004443 bus1=BMT133167178.2,bus2=BMT4298426B.2,Phases=1,Linecode=CAB202_3_1,Length=0.172140000,Units=km
new line.TR1004450 bus1=BMT131940456.1,bus2=BMT131940463.1,Phases=1,Linecode=CAB202_3_1,Length=0.112920000,Units=km
new line.TR1004457 bus1=BMT131940456.1.2.3,bus2=BMT131940470.1.2.3,Phases=3,Linecode=CAB202_3_3,Length=0.084340000,Units=km
new line.TR1004464 bus1=BMT131940470.2,bus2=BMT131940477.2,Phases=1,Linecode=CAB102_3_1,Length=0.029710000,Units=km
new line.TR1004471 bus1=BMT131940470.1.2.3,bus2=BMT3699226B.1.2.3,Phases=3,Linecode=CAB202_3_3,Length=0.078420000,Units=km
new line.TR1004478 bus1=BMT131940484.3,bus2=BMT131940491.3,Phases=1,Linecode=CAB202_3_1,Length=0.078190000,Units=km
new line.TR1004485 bus1=BMT131940484.1.2.3,bus2=BMT3699268B.1.2.3,Phases=3,Linecode=CAB202_3_3,Length=0.139370000,Units=km
new line.TR1004492 bus1=BMT131899149.3,bus2=BMT131899156.3,Phases=1,Linecode=CAB103_3_1,Length=0.075500000,Units=km
new line.TR1004499 bus1=BMT131899002.1.2.3,bus2=BMT3699387B.1.2.3,Phases=3,Linecode=CAB202_3_3,Length=0.363760000,Units=km
new line.TR1004506 bus1=BMT157969044.2,bus2=BMT1752918B.2,Phases=1,Linecode=CAB202_3_1,Length=0.104130000,Units=km
new line.TR1004513 bus1=BMT125213596.1.2.3,bus2=BMT3689272B.1.2.3,Phases=3,Linecode=CAB202_3_3,Length=0.135060000,Units=km
new line.TR1004520 bus1=BMT1752918B.2,bus2=BMT3699464B.2,Phases=1,Linecode=CAB202_3_1,Length=0.114320000,Units=km
new line.TR1004527 bus1=BMT131940498.1.2.3,bus2=BMT125213610.1.2.3,Phases=3,Linecode=CAB202_3_3,Length=0.213470000,Units=km
new line.TR1004534 bus1=BMT131940498.1,bus2=BMT3689279B.1,Phases=1,Linecode=CAB202_3_1,Length=0.095310000,Units=km
new line.TR1004541 bus1=BMT156080885.1,bus2=BMT3689412B.1,Phases=1,Linecode=CAB202_3_1,Length=0.123600000,Units=km
new line.TR1004548 bus1=BMT125213610.1.2.3,bus2=BMT3689496B.1.2.3,Phases=3,Linecode=CAB202_3_3,Length=0.083040000,Units=km
new line.TR1004555 bus1=BMT156080886.1,bus2=BMT156080887.1,Phases=1,Linecode=CAB202_3_1,Length=0.077860000,Units=km
new line.TR1004562 bus1=BMT156080886.1,bus2=BMT4335939B.1,Phases=1,Linecode=CAB202_3_1,Length=0.067710000,Units=km
new line.TR1004569 bus1=BMT131940512.3,bus2=BMT131940519.3,Phases=1,Linecode=CAB202_3_1,Length=0.166370000,Units=km
new line.TR1004576 bus1=BMT131940512.1.2.3,bus2=BMT131940526.1.2.3,Phases=3,Linecode=CAB202_3_3,Length=0.248740000,Units=km
new line.TR1004583 bus1=BMT131940526.3,bus2=BMT131940533.3,Phases=1,Linecode=CAB102_3_1,Length=0.038620000,Units=km
new line.TR1004590 bus1=BMT131940526.1.2.3,bus2=BMT125213652.1.2.3,Phases=3,Linecode=CAB202_3_3,Length=0.137840000,Units=km
new line.TR1004597 bus1=BMT132261399.1,bus2=BMT132261406.1,Phases=1,Linecode=CAB202_3_1,Length=0.058210000,Units=km
new line.TR1004604 bus1=BMT125213652.1.2.3,bus2=BMT131940540.1.2.3,Phases=3,Linecode=CAB202_3_3,Length=0.107050000,Units=km
new line.TR1004611 bus1=BMT132261406.1,bus2=BMT132261413.1,Phases=1,Linecode=CAB103_3_1,Length=0.010000000,Units=km
new line.TR1004618 bus1=BMT132261406.1,bus2=BMT3691022B.1,Phases=1,Linecode=CAB202_3_1,Length=0.549820000,Units=km
new line.TR1004625 bus1=BMT131940540.2,bus2=BMT131940547.2,Phases=1,Linecode=CAB202_3_1,Length=0.087880000,Units=km
new line.TR1004632 bus1=BMT131940540.1.2.3,bus2=BMT3693227B.1.2.3,Phases=3,Linecode=CAB202_3_3,Length=0.088240000,Units=km
new line.TR1004639 bus1=BMT1752981B.1.2.3,bus2=BMT128079137.1.2.3,Phases=3,Linecode=CAB202_3_3,Length=0.113330000,Units=km
new line.TR1004646 bus1=BMT1752988B.1.2.3,bus2=BMT3719330B.1.2.3,Phases=3,Linecode=CAB202_3_3,Length=0.143280000,Units=km
new line.TR1004653 bus1=BMT1752995B.1.2.3,bus2=BMT3719358B.1.2.3,Phases=3,Linecode=CAB202_3_3,Length=0.108270000,Units=km
new line.TR1004660 bus1=BMT160765909.3,bus2=BMT160765911.3,Phases=1,Linecode=CAB103_3_1,Length=0.039020000,Units=km
new line.TR1004667 bus1=BMT160765909.1.2.3,bus2=BMT160765912.1.2.3,Phases=3,Linecode=CAB202_3_3,Length=0.140340000,Units=km
new line.TR1004674 bus1=BMT160765912.2,bus2=BMT160765913.2,Phases=1,Linecode=CAB202_3_1,Length=0.129120000,Units=km
new line.TR1004681 bus1=BMT160765912.1.2.3,bus2=BMT125213848.1.2.3,Phases=3,Linecode=CAB202_3_3,Length=0.124090000,Units=km
new line.TR1004688 bus1=BMT163065806.1.2.3,bus2=BMT163065807.1.2.3,Phases=3,Linecode=CAB202_3_3,Length=0.100890000,Units=km
new line.TR1004695 bus1=BMT125213855.2,bus2=BMT125213862.2,Phases=1,Linecode=CAB202_3_1,Length=0.147760000,Units=km
new line.TR1004702 bus1=BMT160054370.2,bus2=BMT3719561B.2,Phases=1,Linecode=CAB202_3_1,Length=0.170730000,Units=km
new line.TR1004709 bus1=BMT125213862.2,bus2=BMT125213869.2,Phases=1,Linecode=CAB202_3_1,Length=0.120930000,Units=km
new line.TR1004716 bus1=BMT160054373.2,bus2=BMT160054375.2,Phases=1,Linecode=CAB102_3_1,Length=0.029440000,Units=km
new line.TR1004723 bus1=BMT160054373.2,bus2=BMT3719687B.2,Phases=1,Linecode=CAB202_3_1,Length=0.096600000,Units=km
new line.TR1004730 bus1=BMT159131359.2,bus2=BMT3719813B.2,Phases=1,Linecode=CAB202_3_1,Length=0.091250000,Units=km
new line.TR1004737 bus1=BMT159131359.2,bus2=BMT3719820B.2,Phases=1,Linecode=CAB202_3_1,Length=0.115480000,Units=km
new line.TR1004744 bus1=BMT159131360.2,bus2=BMT3719932B.2,Phases=1,Linecode=CAB202_3_1,Length=0.137690000,Units=km
new line.TR1004751 bus1=BMT159131360.2,bus2=BMT3719946B.2,Phases=1,Linecode=CAB202_3_1,Length=0.130050000,Units=km
new line.TR1004758 bus1=BMT1753051B.2,bus2=BMT3719939B.2,Phases=1,Linecode=CAB202_3_1,Length=0.077090000,Units=km
new line.TR1003043 bus1=BMT127586575.3,bus2=BMT127586582.3,Phases=1,Linecode=CAB102_3_1,Length=0.075770000,Units=km
new line.TR1003057 bus1=BMT169160860.1,bus2=BMT3677372B.1,Phases=1,Linecode=CAB202_3_1,Length=0.031030000,Units=km
new line.TR1003064 bus1=BMT169160860.1.2.3,bus2=BMT3677386B.1.2.3,Phases=3,Linecode=CAB202_3_3,Length=0.129390000,Units=km
new line.TR1003071 bus1=BMT169160863.2,bus2=BMT169160865.2,Phases=1,Linecode=CAB202_3_1,Length=0.104600000,Units=km
new line.TR1003078 bus1=BMT169160863.1.2.3,bus2=BMT169160866.1.2.3,Phases=3,Linecode=CAB202_3_3,Length=0.093450000,Units=km
new line.TR1003085 bus1=BMT169160866.3,bus2=BMT169160867.3,Phases=1,Linecode=CAB102_3_1,Length=0.047730000,Units=km
new line.TR1003092 bus1=BMT169160866.1.2.3,bus2=BMT125210684.1.2.3,Phases=3,Linecode=CAB202_3_3,Length=0.138250000,Units=km
new line.TR1003099 bus1=BMT125210691.1.2.3,bus2=BMT169160872.1.2.3,Phases=3,Linecode=CAB202_3_3,Length=0.129350000,Units=km
new line.TR1003106 bus1=BMT125224005.3,bus2=BMT2791200B.3,Phases=1,Linecode=CAB202_3_1,Length=0.116890000,Units=km
new line.TR1003113 bus1=BMT169158505.3,bus2=BMT169158506.3,Phases=1,Linecode=CAB202_3_1,Length=0.131600000,Units=km
new line.TR1003120 bus1=BMT125210705.1.2.3,bus2=BMT169160873.1.2.3,Phases=3,Linecode=CAB202_3_3,Length=0.044400000,Units=km
new line.TR1003127 bus1=BMT169160874.1,bus2=BMT169160876.1,Phases=1,Linecode=CAB202_3_1,Length=0.087170000,Units=km
new line.TR1003134 bus1=BMT169160874.1.2.3,bus2=BMT125210726.1.2.3,Phases=3,Linecode=CAB202_3_3,Length=0.131300000,Units=km
new line.TR1003141 bus1=BMT169160877.3,bus2=BMT169160878.3,Phases=1,Linecode=CAB103_3_1,Length=0.059930000,Units=km
new line.TR1003148 bus1=BMT169160877.1.2.3,bus2=BMT125210747.1.2.3,Phases=3,Linecode=CAB202_3_3,Length=0.167210000,Units=km
new line.TR1003162 bus1=BMT169384411.1,bus2=BMT1752162B.1,Phases=1,Linecode=CAB202_3_1,Length=0.107750000,Units=km
new line.TR1003169 bus1=BMT125223837.3,bus2=BMT3680599B.3,Phases=1,Linecode=CAB202_3_1,Length=0.126290000,Units=km
new line.TR1003176 bus1=BMT125210754.1.2.3,bus2=BMT3680760B.1.2.3,Phases=3,Linecode=CAB202_3_3,Length=0.122530000,Units=km
new line.TR1003183 bus1=BMT1752162B.1,bus2=BMT3680522B.1,Phases=1,Linecode=CAB202_3_1,Length=0.129890000,Units=km
new line.TR1003190 bus1=BMT1752169B.1,bus2=BMT626814B.1,Phases=1,Linecode=CAB202_3_1,Length=0.089060000,Units=km
new line.TR1003197 bus1=BMT1752169B.1,bus2=BMT3680543B.1,Phases=1,Linecode=CAB202_3_1,Length=0.014320000,Units=km
new line.TR1003204 bus1=BMT169384413.1,bus2=BMT3680571B.1,Phases=1,Linecode=CAB202_3_1,Length=0.125310000,Units=km
new line.TR1003211 bus1=BMT169384413.1,bus2=BMT169384414.1,Phases=1,Linecode=CAB103_3_1,Length=0.032220000,Units=km
new line.TR1003218 bus1=BMT125223802.1,bus2=BMT125223809.1,Phases=1,Linecode=CAB202_3_1,Length=0.099520000,Units=km
new line.TR1003225 bus1=BMT125210761.1.2.3,bus2=BMT3680963B.1.2.3,Phases=3,Linecode=CAB202_3_3,Length=0.136950000,Units=km
new line.TR1003232 bus1=BMT125223844.3,bus2=BMT125223851.3,Phases=1,Linecode=CAB202_3_1,Length=0.151670000,Units=km
new line.TR1003239 bus1=BMT153694274.3,bus2=BMT4027491B.3,Phases=1,Linecode=CAB202_3_1,Length=0.202280000,Units=km
new line.TR1003246 bus1=BMT169160880.3,bus2=BMT169160881.3,Phases=1,Linecode=CAB202_3_1,Length=0.038090000,Units=km
new line.TR1003253 bus1=BMT169160880.1.2.3,bus2=BMT3681810B.1.2.3,Phases=3,Linecode=CAB202_3_3,Length=0.127400000,Units=km
new line.TR1003260 bus1=BMT125223809.1,bus2=BMT125223816.1,Phases=1,Linecode=CAB102_3_1,Length=0.081670000,Units=km
new line.TR1003267 bus1=BMT125223809.1,bus2=BMT125223823.1,Phases=1,Linecode=CAB202_3_1,Length=0.170900000,Units=km
new line.TR1003274 bus1=BMT125223809.1,bus2=BMT4655335B.1,Phases=1,Linecode=CAB202_3_1,Length=0.123280000,Units=km
...
