CemigDFeeders/SFIQ410/SFIQ410ChavesMT.dss
new line.CTR10604 bus1=BMT125222276.2,bus2=BMT134796561.2,Phases=1,LineCode=tieSwitch1,Length=0.001,Units=km,switch=T !numEQ 157574
new line.CTR10681 bus1=BMT125215451.3,bus2=BMT125215486.3,Phases=1,LineCode=tieSwitch1,Length=0.001,Units=km,switch=T !numEQ 156723
new line.CTR10688 bus1=BMT125215493.3,bus2=BMT125215507.3,Phases=1,LineCode=tieSwitch1,Length=0.001,Units=km,switch=T !numEQ 156747
new line.CTR113049 bus1=BMT172511682.1.2.3,bus2=BMT125209291.1.2.3,Phases=3,LineCode=tieSwitch,Length=0.001,Units=km,switch=T !numEQ 90552
open line.CTR113049 term=1
new line.CTR113056 bus1=BMT167369304.1.2.3,bus2=BMT125209284.1.2.3,Phases=3,LineCode=tieSwitch,Length=0.001,Units=km,switch=T !numEQ 90553
new line.CTR113063 bus1=BMT157299834.1.2.3,bus2=BMT125209214.1.2.3,Phases=3,LineCode=tieSwitch,Length=0.001,Units=km,switch=T !numEQ 90554
new line.CTR113077 bus1=BMT125209347.1.2.3,bus2=BMT143521431.1.2.3,Phases=3,LineCode=tieSwitch,Length=0.001,Units=km,switch=T !numEQ 90556
new line.CTR113091 bus1=BMT125209515.1.2.3,bus2=BMT160304239.1.2.3,Phases=3,LineCode=tieSwitch,Length=0.001,Units=km,switch=T !numEQ 90558
new line.CTR113098 bus1=BMT172511685.1.2.3,bus2=BMT3334232.1.2.3,Phases=3,LineCode=tieSwitch,Length=0.001,Units=km,switch=T !numEQ 90559
new line.CTR12613 bus1=BMT125212609.1,bus2=BMT164691367.1,Phases=1,LineCode=tieSwitch1,Length=0.001,Units=km,switch=T !numEQ 178708
new line.CTR12746 bus1=BMT125212700.1,bus2=BMT164691383.1,Phases=1,LineCode=tieSwitch1,Length=0.001,Units=km,switch=T !numEQ 178709
new line.CTR133629 bus1=BMT125218139.3,bus2=BMT125218160.3,Phases=1,LineCode=tieSwitch1,Length=0.001,Units=km,switch=T !numEQ 177138
new line.CTR170582 bus1=BMT125212098.1,bus2=BMT164691457.1,Phases=1,LineCode=tieSwitch1,Length=0.001,Units=km,switch=T !numEQ 203145
new line.CTR183770 bus1=BMT125210747.3,bus2=BMT172924946.3,Phases=1,LineCode=tieSwitch1,Length=0.001,Units=km,switch=T !numEQ 40023
new line.CTR183777 bus1=BMT171340883.3,bus2=BMT172925065.3,Phases=1,LineCode=tieSwitch1,Length=0.001,Units=km,switch=T !numEQ 40024
new line.CTR184428 bus1=BMT125211377.1.2.3,bus2=BMT164732300.1.2.3,Phases=3,LineCode=tieSwitch,Length=0.001,Units=km,switch=T !numEQ 158489
new line.CTR184568 bus1=BMT125211146.2,bus2=BMT135512164.2,Phases=1,LineCode=tieSwitch1,Length=0.001,Units=km,switch=T !numEQ 158910
new line.CTR184736 bus1=BMT125218258.1,bus2=BMT143411573.1,Phases=1,LineCode=tieSwitch1,Length=0.001,Units=km,switch=T !numEQ 40028
new line.CTR184743 bus1=BMT125218293.1,bus2=BMT155607106.1,Phases=1,LineCode=tieSwitch1,Length=0.001,Units=km,switch=T !numEQ 40029
new line.CTR184750 bus1=BMT125218328.1,bus2=BMT125218524.1,Phases=1,LineCode=tieSwitch1,Length=0.001,Units=km,switch=T !numEQ 40030
new line.CTR184771 bus1=BMT125210908.3,bus2=BMT170760277.3,Phases=1,LineCode=tieSwitch1,Length=0.001,Units=km,switch=T !numEQ 40033
new line.CTR184841 bus1=BMT125210992.1,bus2=BMT125217432.1,Phases=1,LineCode=tieSwitch1,Length=0.001,Units=km,switch=T !numEQ 39923
new line.CTR184848 bus1=BMT125210999.3,bus2=BMT125217404.3,Phases=1,LineCode=tieSwitch1,Length=0.001,Units=km,switch=T !numEQ 39924
new line.CTR184855 bus1=BMT125211006.1.2.3,bus2=BMT168183339.1.2.3,Phases=3,LineCode=tieSwitch,Length=0.001,Units=km,switch=T !numEQ 39925
new line.CTR184862 bus1=BMT125215612.3,bus2=BMT163010884.3,Phases=1,LineCode=tieSwitch1,Length=0.001,Units=km,switch=T !numEQ 39926
new line.CTR184869 bus1=BMT125217005.3,bus2=BMT125217173.3,Phases=1,LineCode=tieSwitch1,Length=0.001,Units=km,switch=T !numEQ 39927
new line.CTR184876 bus1=BMT125215668.2,bus2=BMT168183511.2,Phases=1,LineCode=tieSwitch1,Length=0.001,Units=km,switch=T !numEQ 39928
new line.CTR184883 bus1=BMT125215689.2,bus2=BMT168183508.2,Phases=1,LineCode=tieSwitch1,Length=0.001,Units=km,switch=T !numEQ 39929
new line.CTR184890 bus1=BMT125215703.2,bus2=BMT168183359.2,Phases=1,LineCode=tieSwitch1,Length=0.001,Units=km,switch=T !numEQ 39930
new line.CTR184897 bus1=BMT125215815.2,bus2=BMT168551022.2,Phases=1,LineCode=tieSwitch1,Length=0.001,Units=km,switch=T !numEQ 39931
new line.CTR184904 bus1=BMT125216011.2,bus2=BMT168252746.2,Phases=1,LineCode=tieSwitch1,Length=0.001,Units=km,switch=T !numEQ 39932
new line.CTR184911 bus1=BMT125216018.2,bus2=BMT168600713.2,Phases=1,LineCode=tieSwitch1,Length=0.001,Units=km,switch=T !numEQ 39933
new line.CTR184925 bus1=BMT125211132.1,bus2=BMT125215199.1,Phases=1,LineCode=tieSwitch1,Length=0.001,Units=km,switch=T !numEQ 39935
new line.CTR184932 bus1=BMT125215213.1,bus2=BMT125215227.1,Phases=1,LineCode=tieSwitch1,Length=0.001,Units=km,switch=T !numEQ 39936
new line.CTR184939 bus1=BMT125211153.1,bus2=BMT125215115.1,Phases=1,LineCode=tieSwitch1,Length=0.001,Units=km,switch=T !numEQ 39937
new line.CTR184946 bus1=BMT125211314.1.2.3,bus2=BMT131940365.1.2.3,Phases=3,LineCode=tieSwitch,Length=0.001,Units=km,switch=T !numEQ 39938
new line.CTR184953 bus1=BMT125213596.2,bus2=BMT157969044.2,Phases=1,LineCode=tieSwitch1,Length=0.001,Units=km,switch=T !numEQ 39939
new line.CTR184960 bus1=BMT125214765.2,bus2=BMT125214779.2,Phases=1,LineCode=tieSwitch1,Length=0.001,Units=km,switch=T !numEQ 39940
new line.CTR184967 bus1=BMT125211839.1,bus2=BMT164691244.1,Phases=1,LineCode=tieSwitch1,Length=0.001,Units=km,switch=T !numEQ 39946
new line.CTR184974 bus1=BMT125211853.1,bus2=BMT164691249.1,Phases=1,LineCode=tieSwitch1,Length=0.001,Units=km,switch=T !numEQ 39947
new line.CTR184981 bus1=BMT125211895.1,bus2=BMT164691418.1,Phases=1,LineCode=tieSwitch1,Length=0.001,Units=km,switch=T !numEQ 39948
new line.CTR184988 bus1=BMT125212336.1,bus2=BMT164691423.1,Phases=1,LineCode=tieSwitch1,Length=0.001,Units=km,switch=T !numEQ 39949
new line.CTR184995 bus1=BMT125212091.1,bus2=BMT164691453.1,Phases=1,LineCode=tieSwitch1,Length=0.001,Units=km,switch=T !numEQ 39950
new line.CTR185002 bus1=BMT125219378.1,bus2=BMT149184937.1,Phases=1,LineCode=tieSwitch1,Length=0.001,Units=km,switch=T !numEQ 39951
new line.CTR185009 bus1=BMT125212161.1,bus2=BMT164691455.1,Phases=1,LineCode=tieSwitch1,Length=0.001,Units=km,switch=T !numEQ 39952
new line.CTR185016 bus1=BMT125219420.1,bus2=BMT149184954.1,Phases=1,LineCode=tieSwitch1,Length=0.001,Units=km,switch=T !numEQ 39953
new line.CTR185023 bus1=BMT125219497.1,bus2=BMT149184973.1,Phases=1,LineCode=tieSwitch1,Length=0.001,Units=km,switch=T !numEQ 39954
new line.CTR185030 bus1=BMT125219518.1,bus2=BMT149185157.1,Phases=1,LineCode=tieSwitch1,Length=0.001,Units=km,switch=T !numEQ 39955
new line.CTR185044 bus1=BMT125219539.1,bus2=BMT149184996.1,Phases=1,LineCode=tieSwitch1,Length=0.001,Units=km,switch=T !numEQ 39956
new line.CTR185051 bus1=BMT125220316.1,bus2=BMT170580719.1,Phases=1,LineCode=tieSwitch1,Length=0.001,Units=km,switch=T !numEQ 39957
new line.CTR185058 bus1=BMT125220365.1,bus2=BMT170625100.1,Phases=1,LineCode=tieSwitch1,Length=0.001,Units=km,switch=T !numEQ 39958
new line.CTR185065 bus1=BMT125219567.1,bus2=BMT172346855.1,Phases=1,LineCode=tieSwitch1,Length=0.001,Units=km,switch=T !numEQ 39960
new line.CTR185072 bus1=BMT172346712.1,bus2=BMT172346729.1,Phases=1,LineCode=tieSwitch1,Length=0.001,Units=km,switch=T !numEQ 39961
new line.CTR185079 bus1=BMT125218965.1,bus2=BMT149201430.1,Phases=1,LineCode=tieSwitch1,Length=0.001,Units=km,switch=T !numEQ 39963
new line.CTR185086 bus1=BMT125221156.1,bus2=BMT172250662.1,Phases=1,LineCode=tieSwitch1,Length=0.001,Units=km,switch=T !numEQ 39964
new line.CTR185093 bus1=BMT125221359.1,bus2=BMT149183235.1,Phases=1,LineCode=tieSwitch1,Length=0.001,Units=km,switch=T !numEQ 39965
new line.CTR185100 bus1=BMT125221184.1,bus2=BMT159057251.1,Phases=1,LineCode=tieSwitch1,Length=0.001,Units=km,switch=T !numEQ 39966
new line.CTR185121 bus1=BMT125218979.1,bus2=BMT156765153.1,Phases=1,LineCode=tieSwitch1,Length=0.001,Units=km,switch=T !numEQ 39962
new line.CTR185191 bus1=BMT125209361.2,bus2=BMT125209410.2,Phases=1,LineCode=tieSwitch1,Length=0.001,Units=km,switch=T !numEQ 39822
new line.CTR185198 bus1=BMT168243528.1.2.3,bus2=BMT125209249.1.2.3,Phases=3,LineCode=tieSwitch,Length=0.001,Units=km,switch=T !numEQ 39823
new line.CTR185205 bus1=BMT125209298.1.2.3,bus2=BMT172511673.1.2.3,Phases=3,LineCode=tieSwitch,Length=0.001,Units=km,switch=T !numEQ 39824
new line.CTR185212 bus1=BMT125209830.1.2.3,bus2=BMT173176927.1.2.3,Phases=3,LineCode=tieSwitch,Length=0.001,Units=km,switch=T !numEQ 39825
new line.CTR185219 bus1=BMT142681410.2,bus2=BMT142681816.2,Phases=1,LineCode=tieSwitch1,Length=0.001,Units=km,switch=T !numEQ 39827
new line.CTR185226 bus1=BMT125210110.3,bus2=BMT161438322.3,Phases=1,LineCode=tieSwitch1,Length=0.001,Units=km,switch=T !numEQ 39828
new line.CTR185233 bus1=BMT164269707.3,bus2=BMT164269710.3,Phases=1,LineCode=tieSwitch1,Length=0.001,Units=km,switch=T !numEQ 39829
new line.CTR185254 bus1=BMT125209081.1.2.3,bus2=BMT172800565.1.2.3,Phases=3,LineCode=tieSwitch,Length=0.001,Units=km,switch=T !numEQ 279159
new line.CTR185261 bus1=BMT125209809.1.2.3,bus2=BMT125209844.1.2.3,Phases=3,LineCode=tieSwitch,Length=0.001,Units=km,switch=T !numEQ 39835
new line.CTR185268 bus1=BMT125210460.3,bus2=BMT166529703.3,Phases=1,LineCode=tieSwitch1,Length=0.001,Units=km,switch=T !numEQ 39836
new line.CTR185275 bus1=BMT170700057.1.2.3,bus2=BMT172804922.1.2.3,Phases=3,LineCode=tieSwitch,Length=0.001,Units=km,switch=T !numEQ 279160
new line.CTR185282 bus1=BMT125224579.2,bus2=BMT170638283.2,Phases=1,LineCode=tieSwitch1,Length=0.001,Units=km,switch=T !numEQ 39838
new line.CTR185289 bus1=BMT125209746.1.2.3,bus2=BMT125224460.1.2.3,Phases=3,LineCode=tieSwitch,Length=0.001,Units=km,switch=T !numEQ 279161
new line.CTR185296 bus1=BMT125208955.1.2.3,bus2=BMT125209018.1.2.3,Phases=3,LineCode=tieSwitch,Length=0.001,Units=km,switch=T !numEQ 39840
new line.CTR185303 bus1=BMT125209753.1.2.3,bus2=BMT172897809.1.2.3,Phases=3,LineCode=tieSwitch,Length=0.001,Units=km,switch=T !numEQ 279162
new line.CTR185310 bus1=BMT143285083.1.2.3,bus2=BMT143285244.1.2.3,Phases=3,LineCode=tieSwitch,Length=0.001,Units=km,switch=T !numEQ 39843
new line.CTR185317 bus1=BMT125210593.1.2.3,bus2=BMT172899192.1.2.3,Phases=3,LineCode=tieSwitch,Length=0.001,Units=km,switch=T !numEQ 279164
new line.CTR185324 bus1=BMT125210614.2,bus2=BMT172900410.2,Phases=1,LineCode=tieSwitch1,Length=0.001,Units=km,switch=T !numEQ 279167
new line.CTR185331 bus1=BMT172789552.1.2.3,bus2=BMT125209732.1.2.3,Phases=3,LineCode=tieSwitch,Length=0.001,Units=km,switch=T !numEQ 39847
open line.CTR185331 term=1
new line.CTR185366 bus1=BMT125210208.3,bus2=BMT164269681.3,Phases=1,LineCode=tieSwitch1,Length=0.001,Units=km,switch=T !numEQ 39853
new line.CTR190476 bus1=BMT120470046.3,bus2=BMT120470081.3,Phases=1,LineCode=tieSwitch1,Length=0.001,Units=km,switch=T !numEQ 39059
new line.CTR190483 bus1=BMT120470445.3,bus2=BMT167928799.3,Phases=1,LineCode=tieSwitch1,Length=0.001,Units=km,switch=T !numEQ 39061
new line.CTR190490 bus1=BMT120470697.3,bus2=BMT173184374.3,Phases=1,LineCode=tieSwitch1,Length=0.001,Units=km,switch=T !numEQ 39063
new line.CTR190497 bus1=BMT120470599.3,bus2=BMT167928999.3,Phases=1,LineCode=tieSwitch1,Length=0.001,Units=km,switch=T !numEQ 39064
new line.CTR190504 bus1=BMT120470039.1.2.3,bus2=BMT120470347.1.2.3,Phases=3,LineCode=tieSwitch,Length=0.001,Units=km,switch=T !numEQ 39065
new line.CTR190511 bus1=BMT120470067.3,bus2=BMT148736228.3,Phases=1,LineCode=tieSwitch1,Length=0.001,Units=km,switch=T !numEQ 39066
new line.CTR190518 bus1=BMT3227321.1.2.3,bus2=BMT120470074.1.2.3,Phases=3,LineCode=tieSwitch,Length=0.001,Units=km,switch=T !numEQ 39067
new line.CTR24758 bus1=BMT125213974.2,bus2=BMT125214023.2,Phases=1,LineCode=tieSwitch1,Length=0.001,Units=km,switch=T !numEQ 178713
new line.CTR24765 bus1=BMT125214058.2,bus2=BMT125214079.2,Phases=1,LineCode=tieSwitch1,Length=0.001,Units=km,switch=T !numEQ 178714
new line.CTR24786 bus1=BMT125213918.2,bus2=BMT125214142.2,Phases=1,LineCode=tieSwitch1,Length=0.001,Units=km,switch=T !numEQ 178717
new line.CTR24800 bus1=BMT125213939.2,bus2=BMT125214114.2,Phases=1,LineCode=tieSwitch1,Length=0.001,Units=km,switch=T !numEQ 178719
new line.CTR248163 bus1=BMT125208906.1.2.3,bus2=BMT130525168.1.2.3,Phases=3,LineCode=tieSwitch,Length=0.001,Units=km,switch=T !numEQ 195464
new line.CTR24821 bus1=BMT125211279.3,bus2=BMT125211293.3,Phases=1,LineCode=tieSwitch1,Length=0.001,Units=km,switch=T !numEQ 178723
new line.CTR24912 bus1=BMT125214198.2,bus2=BMT125214233.2,Phases=1,LineCode=tieSwitch1,Length=0.001,Units=km,switch=T !numEQ 178773
new line.CTR261911 bus1=BMT156892685.2,bus2=BMT157381590.2,Phases=1,LineCode=tieSwitch1,Length=0.001,Units=km,switch=T !numEQ 195856
new line.CTR262408 bus1=BMT120471670.3,bus2=BMT167928961.3,Phases=1,LineCode=tieSwitch1,Length=0.001,Units=km,switch=T !numEQ 155960
new line.CTR262751 bus1=BMT125219322.1,bus2=BMT149201416.1,Phases=1,LineCode=tieSwitch1,Length=0.001,Units=km,switch=T !numEQ 159110
new line.CTR263080 bus1=BMT125217698.3,bus2=BMT125218132.3,Phases=1,LineCode=tieSwitch1,Length=0.001,Units=km,switch=T !numEQ 177137
new line.CTR11045 bus1=BMT125223130.2,bus2=BMT125223151.2,Phases=1,LineCode=tieSwitch1,Length=0.001,Units=km,switch=T !numEQ 157447
new line.CTR13880 bus1=BMT125216466.2,bus2=BMT168183464.2,Phases=1,LineCode=tieSwitch1,Length=0.001,Units=km,switch=T !numEQ 158623
new line.CTR13887 bus1=BMT125216410.2,bus2=BMT168183472.2,Phases=1,LineCode=tieSwitch1,Length=0.001,Units=km,switch=T !numEQ 158625
new line.CTR13894 bus1=BMT125216543.2,bus2=BMT168183461.2,Phases=1,LineCode=tieSwitch1,Length=0.001,Units=km,switch=T !numEQ 159033
new line.CTR139 bus1=BMT125213169.1,bus2=BMT164691315.1,Phases=1,LineCode=tieSwitch1,Length=0.001,Units=km,switch=T !numEQ 157496
new line.CTR13901 bus1=BMT125216480.2,bus2=BMT168183456.2,Phases=1,LineCode=tieSwitch1,Length=0.001,Units=km,switch=T !numEQ 158624
new line.CTR13915 bus1=BMT125216438.2,bus2=BMT168183469.2,Phases=1,LineCode=tieSwitch1,Length=0.001,Units=km,switch=T !numEQ 158622
new line.CTR1448 bus1=BMT170300438.1.2.3,bus2=BMT125208717.1.2.3,Phases=3,LineCode=tieSwitch,Length=0.001,Units=km,switch=T !numEQ 132157
new line.CTR1623 bus1=BMT125208745.1.2.3,bus2=BMT125208773.1.2.3,Phases=3,LineCode=tieSwitch,Length=0.001,Units=km,switch=T !numEQ 132334
new line.CTR172668 bus1=BMT170996385.1.2.3,bus2=BMT125197713.1.2.3,Phases=3,LineCode=tieSwitch,Length=0.001,Units=km,switch=T !numEQ 41888
open line.CTR172668 term=1
new line.CTR173207 bus1=BMT120470774.3,bus2=BMT167928848.3,Phases=1,LineCode=tieSwitch1,Length=0.001,Units=km,switch=T !numEQ 41974
new line.CTR17331 bus1=BMT125216347.2,bus2=BMT168183443.2,Phases=1,LineCode=tieSwitch1,Length=0.001,Units=km,switch=T !numEQ 182963
new line.CTR185415 bus1=BMT125210579.1.2.3,bus2=BMT143285069.1.2.3,Phases=3,LineCode=tieSwitch,Length=0.001,Units=km,switch=T !numEQ 279163
new line.CTR185436 bus1=BMT125208927.1.2.3,bus2=BMT140754835.1.2.3,Phases=3,LineCode=tieSwitch,Length=0.001,Units=km,switch=T !numEQ 311252
new line.CTR185779 bus1=BMT125213610.1,bus2=BMT156080885.1,Phases=1,LineCode=tieSwitch1,Length=0.001,Units=km,switch=T !numEQ 39941
new line.CTR185786 bus1=BMT125213652.1,bus2=BMT132261399.1,Phases=1,LineCode=tieSwitch1,Length=0.001,Units=km,switch=T !numEQ 39942
new line.CTR185793 bus1=BMT125214352.1,bus2=BMT132261518.1,Phases=1,LineCode=tieSwitch1,Length=0.001,Units=km,switch=T !numEQ 39943
new line.CTR185800 bus1=BMT125213862.2,bus2=BMT160054370.2,Phases=1,LineCode=tieSwitch1,Length=0.001,Units=km,switch=T !numEQ 39944
new line.CTR186703 bus1=BMT125214793.2,bus2=BMT125214821.2,Phases=1,LineCode=tieSwitch1,Length=0.001,Units=km,switch=T !numEQ 39606
new line.CTR186710 bus1=BMT125214730.2,bus2=BMT125214877.2,Phases=1,LineCode=tieSwitch1,Length=0.001,Units=km,switch=T !numEQ 39608
new line.CTR186717 bus1=BMT125214387.1,bus2=BMT170647933.1,Phases=1,LineCode=tieSwitch1,Length=0.001,Units=km,switch=T !numEQ 39609
new line.CTR186955 bus1=BMT125210936.1.2.3,bus2=BMT125210943.1.2.3,Phases=3,LineCode=tieSwitch,Length=0.001,Units=km,switch=T !numEQ 39655
new line.CTR186962 bus1=BMT125215822.2,bus2=BMT168183418.2,Phases=1,LineCode=tieSwitch1,Length=0.001,Units=km,switch=T !numEQ 39656
new line.CTR186969 bus1=BMT125215829.2,bus2=BMT168183372.2,Phases=1,LineCode=tieSwitch1,Length=0.001,Units=km,switch=T !numEQ 39657
new line.CTR186983 bus1=BMT125218944.1,bus2=BMT149183223.1,Phases=1,LineCode=tieSwitch1,Length=0.001,Units=km,switch=T !numEQ 39659
new line.CTR186990 bus1=BMT125211139.3,bus2=BMT133122567.3,Phases=1,LineCode=tieSwitch1,Length=0.001,Units=km,switch=T !numEQ 39660
new line.CTR193794 bus1=BMT125216032.2,bus2=BMT168183379.2,Phases=1,LineCode=tieSwitch1,Length=0.001,Units=km,switch=T !numEQ 38471
new line.CTR193815 bus1=BMT120470683.3,bus2=BMT167928925.3,Phases=1,LineCode=tieSwitch1,Length=0.001,Units=km,switch=T !numEQ 38474
new line.CTR193822 bus1=BMT120470676.3,bus2=BMT167928976.3,Phases=1,LineCode=tieSwitch1,Length=0.001,Units=km,switch=T !numEQ 38475
new line.CTR193829 bus1=BMT120470711.3,bus2=BMT167928824.3,Phases=1,LineCode=tieSwitch1,Length=0.001,Units=km,switch=T !numEQ 38476
new line.CTR193836 bus1=BMT120471516.3,bus2=BMT169084851.3,Phases=1,LineCode=tieSwitch1,Length=0.001,Units=km,switch=T !numEQ 38477
new line.CTR193843 bus1=BMT120471593.3,bus2=BMT167928940.3,Phases=1,LineCode=tieSwitch1,Length=0.001,Units=km,switch=T !numEQ 38479
new line.CTR21384 bus1=BMT125212476.1,bus2=BMT164691349.1,Phases=1,LineCode=tieSwitch1,Length=0.001,Units=km,switch=T !numEQ 181828
new line.CTR217342 bus1=BMT120471047.3,bus2=BMT167928896.3,Phases=1,LineCode=tieSwitch1,Length=0.001,Units=km,switch=T !numEQ 179292
new line.CTR22434 bus1=BMT125221996.2,bus2=BMT150758482.2,Phases=1,LineCode=tieSwitch1,Length=0.001,Units=km,switch=T !numEQ 159418
new line.CTR238041 bus1=BMT172897887.1.2.3,bus2=BMT125208899.1.2.3,Phases=3,LineCode=tieSwitch,Length=0.001,Units=km,switch=T !numEQ 195463
open line.CTR238041 term=1
new line.CTR23813 bus1=BMT125215885.2,bus2=BMT168183426.2,Phases=1,LineCode=tieSwitch1,Length=0.001,Units=km,switch=T !numEQ 178897
new line.CTR23820 bus1=BMT125215927.2,bus2=BMT168183430.2,Phases=1,LineCode=tieSwitch1,Length=0.001,Units=km,switch=T !numEQ 178898
new line.CTR23827 bus1=BMT125223844.3,bus2=BMT153694274.3,Phases=1,LineCode=tieSwitch1,Length=0.001,Units=km,switch=T !numEQ 178901
new line.CTR23848 bus1=BMT125218034.3,bus2=BMT125218041.3,Phases=1,LineCode=tieSwitch1,Length=0.001,Units=km,switch=T !numEQ 178906
new line.CTR23855 bus1=BMT125222899.2,bus2=BMT125222927.2,Phases=1,LineCode=tieSwitch1,Length=0.001,Units=km,switch=T !numEQ 178907
new line.CTR23967 bus1=BMT125210229.3,bus2=BMT161012024.3,Phases=1,LineCode=tieSwitch1,Length=0.001,Units=km,switch=T !numEQ 179024
new line.CTR244355 bus1=BMT148521963.1.2.3,bus2=BMT125208976.1.2.3,Phases=3,LineCode=tieSwitch,Length=0.001,Units=km,switch=T !numEQ 195470
open line.CTR244355 term=1
new line.CTR244474 bus1=BMT125208766.1.2.3,bus2=BMT165120417.1.2.3,Phases=3,LineCode=tieSwitch,Length=0.001,Units=km,switch=T !numEQ 195466
new line.CTR275393 bus1=BMT125220463.1,bus2=BMT160093642.1,Phases=1,LineCode=tieSwitch1,Length=0.001,Units=km,switch=T !numEQ 178900
new line.CTR288875 bus1=BMT125210950.1,bus2=BMT125217488.1,Phases=1,LineCode=tieSwitch1,Length=0.001,Units=km,switch=T !numEQ 204174
new line.CTR288882 bus1=BMT125210985.3,bus2=BMT125217446.3,Phases=1,LineCode=tieSwitch1,Length=0.001,Units=km,switch=T !numEQ 192406
new line.CTR288889 bus1=BMT125223396.2,bus2=BMT134212649.2,Phases=1,LineCode=tieSwitch1,Length=0.001,Units=km,switch=T !numEQ 204176
new line.CTR110550 bus1=BMT120470018.3,bus2=BMT167928775.3,Phases=1,LineCode=tieSwitch1,Length=0.001,Units=km,switch=T !numEQ 93060
new line.CTR110557 bus1=BMT120470494.3,bus2=BMT167928810.3,Phases=1,LineCode=tieSwitch1,Length=0.001,Units=km,switch=T !numEQ 93062
new line.CTR111880 bus1=BMT125209704.1,bus2=BMT148520815.1,Phases=1,LineCode=tieSwitch1,Length=0.001,Units=km,switch=T !numEQ 90574
new line.CTR111887 bus1=BMT125209060.1.2.3,bus2=BMT172800894.1.2.3,Phases=3,LineCode=tieSwitch,Length=0.001,Units=km,switch=T !numEQ 90576
new line.CTR111894 bus1=BMT125209200.1.2.3,bus2=BMT162438663.1.2.3,Phases=3,LineCode=tieSwitch,Length=0.001,Units=km,switch=T !numEQ 90577
new line.CTR122688 bus1=BMT125208871.1.2.3,bus2=BMT125208885.1.2.3,Phases=3,LineCode=tieSwitch,Length=0.001,Units=km,switch=T !numEQ 195467
new line.CTR12347 bus1=BMT120471173.3,bus2=BMT167928892.3,Phases=1,LineCode=tieSwitch1,Length=0.001,Units=km,switch=T !numEQ 181297
new line.CTR12354 bus1=BMT120471138.3,bus2=BMT167928890.3,Phases=1,LineCode=tieSwitch1,Length=0.001,Units=km,switch=T !numEQ 181296
new line.CTR12977 bus1=BMT125208661.1.2.3,bus2=BMT170300428.1.2.3,Phases=3,LineCode=tieSwitch,Length=0.001,Units=km,switch=T !numEQ 132744
new line.CTR130962 bus1=BMT125211342.1,bus2=BMT164691202.1,Phases=1,LineCode=tieSwitch1,Length=0.001,Units=km,switch=T !numEQ 39945
new line.CTR13873 bus1=BMT125224481.1.2.3,bus2=BMT125224551.1.2.3,Phases=3,LineCode=tieSwitch,Length=0.001,Units=km,switch=T !numEQ 187644
new line.CTR15812 bus1=BMT125219560.1,bus2=BMT168572033.1,Phases=1,LineCode=tieSwitch1,Length=0.001,Units=km,switch=T !numEQ 145678
new line.CTR158276 bus1=BMT125209970.2,bus2=BMT172935020.2,Phases=1,LineCode=tieSwitch1,Length=0.001,Units=km,switch=T !numEQ 202892
new line.CTR181698 bus1=BMT125211594.1.2.3,bus2=BMT154065851.1.2.3,Phases=3,LineCode=tieSwitch,Length=0.001,Units=km,switch=T !numEQ 40389
new line.CTR181705 bus1=BMT125211650.1,bus2=BMT162514702.1,Phases=1,LineCode=tieSwitch1,Length=0.001,Units=km,switch=T !numEQ 40390
new line.CTR182034 bus1=BMT125209921.1.2.3,bus2=BMT125210068.1.2.3,Phases=3,LineCode=tieSwitch,Length=0.001,Units=km,switch=T !numEQ 40448
new line.CTR182041 bus1=BMT125210103.3,bus2=BMT132592821.3,Phases=1,LineCode=tieSwitch1,Length=0.001,Units=km,switch=T !numEQ 40449
new line.CTR193024 bus1=BMT125224488.1.2.3,bus2=BMT159810627.1.2.3,Phases=3,LineCode=tieSwitch,Length=0.001,Units=km,switch=T !numEQ 179091
new line.CTR20628 bus1=BMT125210957.1,bus2=BMT125217474.1,Phases=1,LineCode=tieSwitch1,Length=0.001,Units=km,switch=T !numEQ 182067
new line.CTR20670 bus1=BMT125215549.2,bus2=BMT168986763.2,Phases=1,LineCode=tieSwitch1,Length=0.001,Units=km,switch=T !numEQ 182088
new line.CTR226414 bus1=BMT125211657.1,bus2=BMT164750433.1,Phases=1,LineCode=tieSwitch1,Length=0.001,Units=km,switch=T !numEQ 192420
new line.CTR260539 bus1=BMT170300431.1.2.3,bus2=BMT6283759.1.2.3,Phases=3,LineCode=tieSwitch,Length=0.001,Units=km,switch=T !numEQ 132747
open line.CTR260539 term=1
new line.CTR261183 bus1=BMT125209011.3,bus2=BMT132591253.3,Phases=1,LineCode=tieSwitch1,Length=0.001,Units=km,switch=T !numEQ 132698
new line.CTR261610 bus1=BMT120470508.3,bus2=BMT167928986.3,Phases=1,LineCode=tieSwitch1,Length=0.001,Units=km,switch=T !numEQ 109039
new line.CTR269345 bus1=BMT125213855.1.2.3,bus2=BMT172504762.1.2.3,Phases=3,LineCode=tieSwitch,Length=0.001,Units=km,switch=T !numEQ 132958
new line.CTR269457 bus1=BMT150073844.3,bus2=BMT150073845.3,Phases=1,LineCode=tieSwitch1,Length=0.001,Units=km,switch=T !numEQ 156722
new line.CTR279124 bus1=BMT125222066.2,bus2=BMT125222465.2,Phases=1,LineCode=tieSwitch1,Length=0.001,Units=km,switch=T !numEQ 156929
new line.CTR279208 bus1=BMT125222017.2,bus2=BMT125222479.2,Phases=1,LineCode=tieSwitch1,Length=0.001,Units=km,switch=T !numEQ 157446
new line.CTR279215 bus1=BMT125222563.2,bus2=BMT125222584.2,Phases=1,LineCode=tieSwitch1,Length=0.001,Units=km,switch=T !numEQ 176829
new line.CTR279446 bus1=BMT125218839.1,bus2=BMT170188816.1,Phases=1,LineCode=tieSwitch1,Length=0.001,Units=km,switch=T !numEQ 178216
new line.CTR279453 bus1=BMT125218825.1,bus2=BMT125221499.1,Phases=1,LineCode=tieSwitch1,Length=0.001,Units=km,switch=T !numEQ 178215
new line.CTR279460 bus1=BMT125220442.1,bus2=BMT149185023.1,Phases=1,LineCode=tieSwitch1,Length=0.001,Units=km,switch=T !numEQ 157273
new line.CTR279467 bus1=BMT125220512.1,bus2=BMT149185035.1,Phases=1,LineCode=tieSwitch1,Length=0.001,Units=km,switch=T !numEQ 157384
new line.CTR280748 bus1=BMT125209690.1.2.3,bus2=BMT163518959.1.2.3,Phases=3,LineCode=tieSwitch,Length=0.001,Units=km,switch=T !numEQ 187677
new line.CTR281924 bus1=BMT125212959.1,bus2=BMT164691264.1,Phases=1,LineCode=tieSwitch1,Length=0.001,Units=km,switch=T !numEQ 156716
new line.CTR282141 bus1=BMT170800213.1.2.3,bus2=BMT5665337.1.2.3,Phases=3,LineCode=tieSwitch,Length=0.001,Units=km,switch=T !numEQ 132156
open line.CTR282141 term=1
new line.CTR285487 bus1=BMT125211349.1.2.3,bus2=BMT164727452.1.2.3,Phases=3,LineCode=tieSwitch,Length=0.001,Units=km,switch=T !numEQ 204128
new line.CTR285606 bus1=BMT125211636.1.2.3,bus2=BMT147690631.1.2.3,Phases=3,LineCode=tieSwitch,Length=0.001,Units=km,switch=T !numEQ 204129
new line.CTR286978 bus1=BMT125218251.1,bus2=BMT164874214.1,Phases=1,LineCode=tieSwitch1,Length=0.001,Units=km,switch=T !numEQ 204113
new line.CTR286985 bus1=BMT125218265.1,bus2=BMT164381767.1,Phases=1,LineCode=tieSwitch1,Length=0.001,Units=km,switch=T !numEQ 204114
new line.CTR286992 bus1=BMT125219189.1,bus2=BMT159298763.1,Phases=1,LineCode=tieSwitch1,Length=0.001,Units=km,switch=T !numEQ 204116
new line.CTR287552 bus1=BMT172560871.1.2.3,bus2=BMT125209564.1.2.3,Phases=3,LineCode=tieSwitch,Length=0.001,Units=km,switch=T !numEQ 213494
open line.CTR287552 term=1
new line.CTR288063 bus1=BMT125213869.2,bus2=BMT133364599.2,Phases=1,LineCode=tieSwitch1,Length=0.001,Units=km,switch=T !numEQ 200376
new line.CTR2883 bus1=BMT125212833.1,bus2=BMT164691254.1,Phases=1,LineCode=tieSwitch1,Length=0.001,Units=km,switch=T !numEQ 203138
new line.CTR29994 bus1=BMT125217026.3,bus2=BMT125217159.3,Phases=1,LineCode=tieSwitch1,Length=0.001,Units=km,switch=T !numEQ 176983
new line.CTR31653 bus1=BMT125221709.2,bus2=BMT166028285.2,Phases=1,LineCode=tieSwitch1,Length=0.001,Units=km,switch=T !numEQ 176671
new line.CTR316609 bus1=BMT125208738.1.2.3,bus2=BMT125224789.1.2.3,Phases=3,LineCode=tieSwitch,Length=0.001,Units=km,switch=T !numEQ 225074
new line.CTR318961 bus1=BMT125218811.1,bus2=BMT125221513.1,Phases=1,LineCode=tieSwitch1,Length=0.001,Units=km,switch=T !numEQ 220865
new line.CTR273111 bus1=BMT125222549.2,bus2=BMT125222752.2,Phases=1,LineCode=tieSwitch1,Length=0.001,Units=km,switch=T !numEQ 177050
new line.CTR276254 bus1=BMT125218930.1,bus2=BMT125218937.1,Phases=1,LineCode=tieSwitch1,Length=0.001,Units=km,switch=T !numEQ 206789
new line.CTR277710 bus1=BMT130525196.1.2.3,bus2=BMT125208941.1.2.3,Phases=3,LineCode=tieSwitch,Length=0.001,Units=km,switch=T !numEQ 195468
new line.CTR277717 bus1=BMT125208962.1,bus2=BMT154131827.1,Phases=1,LineCode=tieSwitch1,Length=0.001,Units=km,switch=T !numEQ 132160
new line.CTR277829 bus1=BMT125209991.2,bus2=BMT163644238.2,Phases=1,LineCode=tieSwitch1,Length=0.001,Units=km,switch=T !numEQ 132424
new line.CTR278788 bus1=BMT125219637.1,bus2=BMT149185058.1,Phases=1,LineCode=tieSwitch1,Length=0.001,Units=km,switch=T !numEQ 177377
new line.CTR278886 bus1=BMT125212616.1,bus2=BMT164691403.1,Phases=1,LineCode=tieSwitch1,Length=0.001,Units=km,switch=T !numEQ 178214
new line.CTR278893 bus1=BMT125217957.3,bus2=BMT125218055.3,Phases=1,LineCode=tieSwitch1,Length=0.001,Units=km,switch=T !numEQ 159417
new line.CTR28251 bus1=BMT120471887.3,bus2=BMT167928801.3,Phases=1,LineCode=tieSwitch1,Length=0.001,Units=km,switch=T !numEQ 177862
new line.CTR282932 bus1=BMT5636056.1.2.3,bus2=BMT170996380.1.2.3,Phases=3,LineCode=tieSwitch,Length=0.001,Units=km,switch=T !numEQ 195473
new line.CTR283002 bus1=BMT134908463.1.2.3,bus2=BMT3528832.1.2.3,Phases=3,LineCode=tieSwitch,Length=0.001,Units=km,switch=T !numEQ 90584
open line.CTR283002 term=1
new line.CTR283044 bus1=BMT125210558.1.2.3,bus2=BMT172897885.1.2.3,Phases=3,LineCode=tieSwitch,Length=0.001,Units=km,switch=T !numEQ 195472
new line.CTR283380 bus1=BMT120470900.3,bus2=BMT167928870.3,Phases=1,LineCode=tieSwitch1,Length=0.001,Units=km,switch=T !numEQ 179291
new line.CTR283387 bus1=BMT120471292.3,bus2=BMT167928906.3,Phases=1,LineCode=tieSwitch1,Length=0.001,Units=km,switch=T !numEQ 179293
new line.CTR283394 bus1=BMT120471061.3,bus2=BMT167928876.3,Phases=1,LineCode=tieSwitch1,Length=0.001,Units=km,switch=T !numEQ 179294
new line.CTR283401 bus1=BMT120471117.3,bus2=BMT167928886.3,Phases=1,LineCode=tieSwitch1,Length=0.001,Units=km,switch=T !numEQ 179295
new line.CTR284514 bus1=BMT125210761.1,bus2=BMT125223802.1,Phases=1,LineCode=tieSwitch1,Length=0.001,Units=km,switch=T !numEQ 203081
new line.CTR28496 bus1=BMT125221856.2,bus2=BMT125222955.2,Phases=1,LineCode=tieSwitch1,Length=0.001,Units=km,switch=T !numEQ 177423
new line.CTR28503 bus1=BMT125222962.2,bus2=BMT151626175.2,Phases=1,LineCode=tieSwitch1,Length=0.001,Units=km,switch=T !numEQ 177424
new line.CTR28510 bus1=BMT125222983.2,bus2=BMT125223032.2,Phases=1,LineCode=tieSwitch1,Length=0.001,Units=km,switch=T !numEQ 177425
new line.CTR2925 bus1=BMT125211923.1,bus2=BMT164691436.1,Phases=1,LineCode=tieSwitch1,Length=0.001,Units=km,switch=T !numEQ 203143
new line.CTR2932 bus1=BMT125212007.1,bus2=BMT164691448.1,Phases=1,LineCode=tieSwitch1,Length=0.001,Units=km,switch=T !numEQ 203144
new line.CTR293558 bus1=BMT125211174.1.2.3,bus2=BMT164953605.1.2.3,Phases=3,LineCode=tieSwitch,Length=0.001,Units=km,switch=T !numEQ 217771
new line.CTR293866 bus1=BMT125209977.2,bus2=BMT148253206.2,Phases=1,LineCode=tieSwitch1,Length=0.001,Units=km,switch=T !numEQ 211710
new line.CTR294160 bus1=BMT125219357.1,bus2=BMT149201531.1,Phases=1,LineCode=tieSwitch1,Length=0.001,Units=km,switch=T !numEQ 204117
new line.CTR294188 bus1=BMT125219574.1,bus2=BMT167249423.1,Phases=1,LineCode=tieSwitch1,Length=0.001,Units=km,switch=T !numEQ 204118
new line.CTR294195 bus1=BMT125219777.1,bus2=BMT156220108.1,Phases=1,LineCode=tieSwitch1,Length=0.001,Units=km,switch=T !numEQ 215691
new line.CTR307432 bus1=BMT120470438.3,bus2=BMT167928793.3,Phases=1,LineCode=tieSwitch1,Length=0.001,Units=km,switch=T !numEQ 215513
new line.CTR30946 bus1=BMT125222598.2,bus2=BMT125222675.2,Phases=1,LineCode=tieSwitch1,Length=0.001,Units=km,switch=T !numEQ 176830
new line.CTR30953 bus1=BMT125222689.2,bus2=BMT125222731.2,Phases=1,LineCode=tieSwitch1,Length=0.001,Units=km,switch=T !numEQ 176831
new line.CTR326283 bus1=BMT125210299.3,bus2=BMT125210383.3,Phases=1,LineCode=tieSwitch1,Length=0.001,Units=km,switch=T !numEQ 213687
new line.CTR32717 bus1=BMT125212840.1,bus2=BMT164691252.1,Phases=1,LineCode=tieSwitch1,Length=0.001,Units=km,switch=T !numEQ 175848
new line.CTR338981 bus1=BMT125211167.1,bus2=BMT159216669.1,Phases=1,LineCode=tieSwitch1,Length=0.001,Units=km,switch=T !numEQ 230772
new line.CTR34110 bus1=BMT125219833.1,bus2=BMT168775479.1,Phases=1,LineCode=tieSwitch1,Length=0.001,Units=km,switch=T !numEQ 159381
new line.CTR365455 bus1=BMT125208857.1.2.3,bus2=BMT125224761.1.2.3,Phases=3,LineCode=tieSwitch,Length=0.001,Units=km,switch=T !numEQ 284492
new line.CTR38429 bus1=BMT125222248.2,bus2=BMT125222402.2,Phases=1,LineCode=tieSwitch1,Length=0.001,Units=km,switch=T !numEQ 157159
new line.CTR38457 bus1=BMT125212238.1,bus2=BMT164691442.1,Phases=1,LineCode=tieSwitch1,Length=0.001,Units=km,switch=T !numEQ 158377
new line.CTR40095 bus1=BMT125209802.1.2.3,bus2=BMT125210446.1.2.3,Phases=3,LineCode=tieSwitch,Length=0.001,Units=km,switch=T !numEQ 157972
new line.CTR406811 bus1=BMT131899002.3,bus2=BMT131899149.3,Phases=1,LineCode=tieSwitch1,Length=0.001,Units=km,switch=T !numEQ 221191
new line.CTR406874 bus1=BMT131950004.3,bus2=BMT159956686.3,Phases=1,LineCode=tieSwitch1,Length=0.001,Units=km,switch=T !numEQ 221170
new line.CTR4073 bus1=BMT125220519.1,bus2=BMT161464859.1,Phases=1,LineCode=tieSwitch1,Length=0.001,Units=km,switch=T !numEQ 181757
new line.CTR40970 bus1=BMT125220946.1,bus2=BMT149184959.1,Phases=1,LineCode=tieSwitch1,Length=0.001,Units=km,switch=T !numEQ 157502
new line.CTR410430 bus1=BMT133108546.3,bus2=BMT167928807.3,Phases=1,LineCode=tieSwitch1,Length=0.001,Units=km,switch=T !numEQ 303461
new line.CTR410570 bus1=BMT133122595.3,bus2=BMT170650723.3,Phases=1,LineCode=tieSwitch1,Length=0.001,Units=km,switch=T !numEQ 303473
new line.CTR410626 bus1=BMT133155894.1,bus2=BMT133155915.1,Phases=1,LineCode=tieSwitch1,Length=0.001,Units=km,switch=T !numEQ 303475
new line.CTR410745 bus1=BMT133167227.2,bus2=BMT133167234.2,Phases=1,LineCode=tieSwitch1,Length=0.001,Units=km,switch=T !numEQ 303515
new line.CTR42020 bus1=BMT125212595.1,bus2=BMT164691364.1,Phases=1,LineCode=tieSwitch1,Length=0.001,Units=km,switch=T !numEQ 157428
new line.CTR42090 bus1=BMT125221303.1,bus2=BMT149183248.1,Phases=1,LineCode=tieSwitch1,Length=0.001,Units=km,switch=T !numEQ 157440
new line.CTR42111 bus1=BMT125217999.3,bus2=BMT125218020.3,Phases=1,LineCode=tieSwitch1,Length=0.001,Units=km,switch=T !numEQ 157443
new line.CTR422435 bus1=BMT135529608.1,bus2=BMT162417330.1,Phases=1,LineCode=tieSwitch1,Length=0.001,Units=km,switch=T !numEQ 301081
new line.CTR42307 bus1=BMT125219238.1,bus2=BMT151465791.1,Phases=1,LineCode=tieSwitch1,Length=0.001,Units=km,switch=T !numEQ 157498
new line.CTR42314 bus1=BMT125220911.1,bus2=BMT149184956.1,Phases=1,LineCode=tieSwitch1,Length=0.001,Units=km,switch=T !numEQ 157500
new line.CTR42321 bus1=BMT125220932.1,bus2=BMT149184963.1,Phases=1,LineCode=tieSwitch1,Length=0.001,Units=km,switch=T !numEQ 157501
new line.CTR451254 bus1=BMT170699933.1.2.3,bus2=BMT170699974.1.2.3,Phases=3,LineCode=tieSwitch,Length=0.001,Units=km,switch=T !numEQ 308830
new line.CTR451282 bus1=BMT143525029.1.2.3,bus2=BMT143525134.1.2.3,Phases=3,LineCode=tieSwitch,Length=0.001,Units=km,switch=T !numEQ 308831
new line.CTR466395 bus1=BMT147743348.1,bus2=BMT160951342.1,Phases=1,LineCode=tieSwitch1,Length=0.001,Units=km,switch=T !numEQ 307570
new line.CTR46703 bus1=BMT125213127.1,bus2=BMT164691296.1,Phases=1,LineCode=tieSwitch1,Length=0.001,Units=km,switch=T !numEQ 156202
new line.CTR46710 bus1=BMT125212945.1,bus2=BMT164691277.1,Phases=1,LineCode=tieSwitch1,Length=0.001,Units=km,switch=T !numEQ 156203
new line.CTR46773 bus1=BMT125219427.1,bus2=BMT149184965.1,Phases=1,LineCode=tieSwitch1,Length=0.001,Units=km,switch=T !numEQ 156217
new line.CTR46780 bus1=BMT125219511.1,bus2=BMT156129779.1,Phases=1,LineCode=tieSwitch1,Length=0.001,Units=km,switch=T !numEQ 156218
new line.CTR46808 bus1=BMT125213155.1,bus2=BMT164691300.1,Phases=1,LineCode=tieSwitch1,Length=0.001,Units=km,switch=T !numEQ 156223
new line.CTR47886 bus1=BMT125214492.1,bus2=BMT132261560.1,Phases=1,LineCode=tieSwitch1,Length=0.001,Units=km,switch=T !numEQ 155752
new line.CTR47893 bus1=BMT125214513.1,bus2=BMT132261588.1,Phases=1,LineCode=tieSwitch1,Length=0.001,Units=km,switch=T !numEQ 155753
new line.CTR47900 bus1=BMT125214562.1,bus2=BMT132261637.1,Phases=1,LineCode=tieSwitch1,Length=0.001,Units=km,switch=T !numEQ 155754
new line.CTR47907 bus1=BMT125214569.1,bus2=BMT132261623.1,Phases=1,LineCode=tieSwitch1,Length=0.001,Units=km,switch=T !numEQ 155755
new line.CTR49986 bus1=BMT125219665.1,bus2=BMT149185060.1,Phases=1,LineCode=tieSwitch1,Length=0.001,Units=km,switch=T !numEQ 146585
new line.CTR50294 bus1=BMT125224348.2,bus2=BMT125224355.2,Phases=1,LineCode=tieSwitch1,Length=0.001,Units=km,switch=T !numEQ 146676
new line.CTR50301 bus1=BMT125224362.2,bus2=BMT125224376.2,Phases=1,LineCode=tieSwitch1,Length=0.001,Units=km,switch=T !numEQ 146677
new line.CTR50721 bus1=BMT125211412.3,bus2=BMT125211545.3,Phases=1,LineCode=tieSwitch1,Length=0.001,Units=km,switch=T !numEQ 146174
new line.CTR50910 bus1=BMT125221786.2,bus2=BMT163332871.2,Phases=1,LineCode=tieSwitch1,Length=0.001,Units=km,switch=T !numEQ 146216
new line.CTR50924 bus1=BMT125221821.2,bus2=BMT125223060.2,Phases=1,LineCode=tieSwitch1,Length=0.001,Units=km,switch=T !numEQ 146221
new line.CTR51015 bus1=BMT125211888.1,bus2=BMT164691414.1,Phases=1,LineCode=tieSwitch1,Length=0.001,Units=km,switch=T !numEQ 146250
new line.CTR52618 bus1=BMT125209235.1.2.3,bus2=BMT125209613.1.2.3,Phases=3,LineCode=tieSwitch,Length=0.001,Units=km,switch=T !numEQ 146035
new line.CTR52625 bus1=BMT172903597.3,bus2=BMT172903598.3,Phases=1,LineCode=tieSwitch1,Length=0.001,Units=km,switch=T !numEQ 146036
new line.CTR52639 bus1=BMT125210789.1.2.3,bus2=BMT125210796.1.2.3,Phases=3,LineCode=tieSwitch,Length=0.001,Units=km,switch=T !numEQ 146037
new line.CTR52646 bus1=BMT125210810.1.2.3,bus2=BMT125223438.1.2.3,Phases=3,LineCode=tieSwitch,Length=0.001,Units=km,switch=T !numEQ 146038
new line.CTR52870 bus1=BMT125213526.2,bus2=BMT133167178.2,Phases=1,LineCode=tieSwitch1,Length=0.001,Units=km,switch=T !numEQ 145797
new line.CTR54963 bus1=BMT125219028.1,bus2=BMT149201433.1,Phases=1,LineCode=tieSwitch1,Length=0.001,Units=km,switch=T !numEQ 145378
new line.CTR54970 bus1=BMT125219021.1,bus2=BMT149201450.1,Phases=1,LineCode=tieSwitch1,Length=0.001,Units=km,switch=T !numEQ 145379
new line.CTR552 bus1=BMT125215969.2,bus2=BMT168325545.2,Phases=1,LineCode=tieSwitch1,Length=0.001,Units=km,switch=T !numEQ 182040
new line.CTR559 bus1=BMT125216158.2,bus2=BMT168183410.2,Phases=1,LineCode=tieSwitch1,Length=0.001,Units=km,switch=T !numEQ 182041
new line.CTR6775 bus1=BMT125215724.2,bus2=BMT168183480.2,Phases=1,LineCode=tieSwitch1,Length=0.001,Units=km,switch=T !numEQ 157545
new line.CTR73072 bus1=BMT125215031.1,bus2=BMT132259831.1,Phases=1,LineCode=tieSwitch1,Length=0.001,Units=km,switch=T !numEQ 121367
new line.CTR73114 bus1=BMT125215297.1,bus2=BMT125215388.1,Phases=1,LineCode=tieSwitch1,Length=0.001,Units=km,switch=T !numEQ 121371
new line.CTR73135 bus1=BMT125215283.1,bus2=BMT125215409.1,Phases=1,LineCode=tieSwitch1,Length=0.001,Units=km,switch=T !numEQ 121374
new line.CTR73191 bus1=BMT125215234.1,bus2=BMT161014719.1,Phases=1,LineCode=tieSwitch1,Length=0.001,Units=km,switch=T !numEQ 121383
new line.CTR73254 bus1=BMT120470144.3,bus2=BMT120470319.3,Phases=1,LineCode=tieSwitch1,Length=0.001,Units=km,switch=T !numEQ 121394
new line.CTR73261 bus1=BMT120470214.3,bus2=BMT120470291.3,Phases=1,LineCode=tieSwitch1,Length=0.001,Units=km,switch=T !numEQ 121395
new line.CTR79281 bus1=BMT125219007.1,bus2=BMT149201454.1,Phases=1,LineCode=tieSwitch1,Length=0.001,Units=km,switch=T !numEQ 115061
new line.CTR8056 bus1=BMT125221009.1,bus2=BMT149184941.1,Phases=1,LineCode=tieSwitch1,Length=0.001,Units=km,switch=T !numEQ 157445
new line.CTR8063 bus1=BMT125219399.1,bus2=BMT149184939.1,Phases=1,LineCode=tieSwitch1,Length=0.001,Units=km,switch=T !numEQ 157444
new line.CTR844495 bus1=BMT148346568.1.2.3,bus2=BMT165393271.1.2.3,Phases=3,LineCode=tieSwitch,Length=0.001,Units=km,switch=T !numEQ 287016
new line.CTR849603 bus1=BMT149750815.1,bus2=BMT157435061.1,Phases=1,LineCode=tieSwitch1,Length=0.001,Units=km,switch=T !numEQ 379083
new line.CTR849627 bus1=BMT149760789.1.2.3,bus2=BMT149761036.1.2.3,Phases=3,LineCode=tieSwitch,Length=0.001,Units=km,switch=T !numEQ 379095
new line.CTR849704 bus1=BMT149785649.3,bus2=BMT167928844.3,Phases=1,LineCode=tieSwitch1,Length=0.001,Units=km,switch=T !numEQ 314825
new line.CTR849705 bus1=BMT149785713.3,bus2=BMT167928846.3,Phases=1,LineCode=tieSwitch1,Length=0.001,Units=km,switch=T !numEQ 314826
new line.CTR850186 bus1=BMT149890549.3,bus2=BMT149892346.3,Phases=1,LineCode=tieSwitch1,Length=0.001,Units=km,switch=T !numEQ 314888
new line.CTR32857 bus1=BMT125211524.1,bus2=BMT125211531.1,Phases=1,LineCode=tieSwitch1,Length=0.001,Units=km,switch=T !numEQ 175909
new line.CTR331498 bus1=BMT125208850.1.2.3,bus2=BMT125224775.1.2.3,Phases=3,LineCode=tieSwitch,Length=0.001,Units=km,switch=T !numEQ 228386
new line.CTR342173 bus1=BMT125220820.1,bus2=BMT165033680.1,Phases=1,LineCode=tieSwitch1,Length=0.001,Units=km,switch=T !numEQ 284344
new line.CTR342831 bus1=BMT125217495.1,bus2=BMT125217509.1,Phases=1,LineCode=tieSwitch1,Length=0.001,Units=km,switch=T !numEQ 284341
new line.CTR364055 bus1=BMT125224222.2,bus2=BMT162661153.2,Phases=1,LineCode=tieSwitch1,Length=0.001,Units=km,switch=T !numEQ 284345
new line.CTR364062 bus1=BMT125224264.2,bus2=BMT169294480.2,Phases=1,LineCode=tieSwitch1,Length=0.001,Units=km,switch=T !numEQ 284346
new line.CTR372910 bus1=BMT125215619.2,bus2=BMT168183350.2,Phases=1,LineCode=tieSwitch1,Length=0.001,Units=km,switch=T !numEQ 220652
new line.CTR373211 bus1=BMT125217586.1,bus2=BMT125217600.1,Phases=1,LineCode=tieSwitch1,Length=0.001,Units=km,switch=T !numEQ 231091
new line.CTR38905 bus1=BMT125217355.2,bus2=BMT125217390.2,Phases=1,LineCode=tieSwitch1,Length=0.001,Units=km,switch=T !numEQ 157994
new line.CTR40515 bus1=BMT125213848.2,bus2=BMT125214296.2,Phases=1,LineCode=tieSwitch1,Length=0.001,Units=km,switch=T !numEQ 157813
new line.CTR412068 bus1=BMT133364606.2,bus2=BMT159131358.2,Phases=1,LineCode=tieSwitch1,Length=0.001,Units=km,switch=T !numEQ 303642
new line.CTR41208 bus1=BMT125212952.1,bus2=BMT164691274.1,Phases=1,LineCode=tieSwitch1,Length=0.001,Units=km,switch=T !numEQ 157573
new line.CTR412110 bus1=BMT133370367.2,bus2=BMT168744227.2,Phases=1,LineCode=tieSwitch1,Length=0.001,Units=km,switch=T !numEQ 303644
new line.CTR412362 bus1=BMT133405129.3,bus2=BMT133405297.3,Phases=1,LineCode=tieSwitch1,Length=0.001,Units=km,switch=T !numEQ 303671
new line.CTR412376 bus1=BMT133407334.1,bus2=BMT162376736.1,Phases=1,LineCode=tieSwitch1,Length=0.001,Units=km,switch=T !numEQ 303673
new line.CTR412425 bus1=BMT133412115.1,bus2=BMT149201410.1,Phases=1,LineCode=tieSwitch1,Length=0.001,Units=km,switch=T !numEQ 303677
new line.CTR413468 bus1=BMT133540012.2,bus2=BMT133540026.2,Phases=1,LineCode=tieSwitch1,Length=0.001,Units=km,switch=T !numEQ 303924
new line.CTR414084 bus1=BMT133778187.1,bus2=BMT170299417.1,Phases=1,LineCode=tieSwitch1,Length=0.001,Units=km,switch=T !numEQ 301099
new line.CTR42895 bus1=BMT125221177.1,bus2=BMT149183246.1,Phases=1,LineCode=tieSwitch1,Length=0.001,Units=km,switch=T !numEQ 157316
new line.CTR43049 bus1=BMT168452832.3,bus2=BMT168457371.3,Phases=1,LineCode=tieSwitch1,Length=0.001,Units=km,switch=T !numEQ 156927
new line.CTR43056 bus1=BMT125217845.3,bus2=BMT125217866.3,Phases=1,LineCode=tieSwitch1,Length=0.001,Units=km,switch=T !numEQ 156928
new line.CTR456000 bus1=BMT144758569.1.2.3,bus2=BMT144758604.1.2.3,Phases=3,LineCode=tieSwitch,Length=0.001,Units=km,switch=T !numEQ 316344
new line.CTR47305 bus1=BMT125218573.1,bus2=BMT169068110.1,Phases=1,LineCode=tieSwitch1,Length=0.001,Units=km,switch=T !numEQ 155973
new line.CTR47459 bus1=BMT125217096.3,bus2=BMT125217131.3,Phases=1,LineCode=tieSwitch1,Length=0.001,Units=km,switch=T !numEQ 156025
new line.CTR48397 bus1=BMT125214205.2,bus2=BMT125214261.2,Phases=1,LineCode=tieSwitch1,Length=0.001,Units=km,switch=T !numEQ 155917
new line.CTR48523 bus1=BMT125218426.1,bus2=BMT125218447.1,Phases=1,LineCode=tieSwitch1,Length=0.001,Units=km,switch=T !numEQ 155971
new line.CTR48873 bus1=BMT125215717.2,bus2=BMT170649767.2,Phases=1,LineCode=tieSwitch1,Length=0.001,Units=km,switch=T !numEQ 155673
new line.CTR48880 bus1=BMT125216809.2,bus2=BMT168183502.2,Phases=1,LineCode=tieSwitch1,Length=0.001,Units=km,switch=T !numEQ 155674
new line.CTR49034 bus1=BMT120471824.3,bus2=BMT167928980.3,Phases=1,LineCode=tieSwitch1,Length=0.001,Units=km,switch=T !numEQ 155707
new line.CTR49160 bus1=BMT125219161.1,bus2=BMT149201457.1,Phases=1,LineCode=tieSwitch1,Length=0.001,Units=km,switch=T !numEQ 155785
new line.CTR51120 bus1=BMT125213757.3,bus2=BMT132262442.3,Phases=1,LineCode=tieSwitch1,Length=0.001,Units=km,switch=T !numEQ 146485
new line.CTR51267 bus1=BMT125210887.1,bus2=BMT125218230.1,Phases=1,LineCode=tieSwitch1,Length=0.001,Units=km,switch=T !numEQ 146039
new line.CTR51281 bus1=BMT125218370.1,bus2=BMT161946601.1,Phases=1,LineCode=tieSwitch1,Length=0.001,Units=km,switch=T !numEQ 146041
new line.CTR51288 bus1=BMT125218664.1,bus2=BMT125221569.1,Phases=1,LineCode=tieSwitch1,Length=0.001,Units=km,switch=T !numEQ 146042
new line.CTR51673 bus1=BMT125210880.2,bus2=BMT125221667.2,Phases=1,LineCode=tieSwitch1,Length=0.001,Units=km,switch=T !numEQ 146102
new line.CTR51680 bus1=BMT125221744.2,bus2=BMT125221751.2,Phases=1,LineCode=tieSwitch1,Length=0.001,Units=km,switch=T !numEQ 146103
new line.CTR51687 bus1=BMT125221926.2,bus2=BMT125221933.2,Phases=1,LineCode=tieSwitch1,Length=0.001,Units=km,switch=T !numEQ 146104
new line.CTR52877 bus1=BMT125214933.2,bus2=BMT125214982.2,Phases=1,LineCode=tieSwitch1,Length=0.001,Units=km,switch=T !numEQ 145798
new line.CTR5347 bus1=BMT125216984.3,bus2=BMT125217236.3,Phases=1,LineCode=tieSwitch1,Length=0.001,Units=km,switch=T !numEQ 146255
new line.CTR566 bus1=BMT125216193.2,bus2=BMT168183406.2,Phases=1,LineCode=tieSwitch1,Length=0.001,Units=km,switch=T !numEQ 182042
new line.CTR5872 bus1=BMT125222332.2,bus2=BMT125222353.2,Phases=1,LineCode=tieSwitch1,Length=0.001,Units=km,switch=T !numEQ 132085
new line.CTR6187 bus1=BMT120470011.1.2.3,bus2=BMT120469997.1.2.3,Phases=3,LineCode=tieSwitch,Length=0.001,Units=km,switch=T !numEQ 132113
new line.CTR6950 bus1=BMT125221905.2,bus2=BMT125222780.2,Phases=1,LineCode=tieSwitch1,Length=0.001,Units=km,switch=T !numEQ 157068
new line.CTR75669 bus1=BMT149201532.1,bus2=BMT125212105.1,Phases=1,LineCode=tieSwitch1,Length=0.001,Units=km,switch=T !numEQ 120845
open line.CTR75669 term=1
new line.CTR80380 bus1=BMT125219042.1,bus2=BMT170195059.1,Phases=1,LineCode=tieSwitch1,Length=0.001,Units=km,switch=T !numEQ 114742
new line.CTR846098 bus1=BMT148736229.3,bus2=BMT148736256.3,Phases=1,LineCode=tieSwitch1,Length=0.001,Units=km,switch=T !numEQ 299010
new line.CTR846575 bus1=BMT148892465.1,bus2=BMT149185063.1,Phases=1,LineCode=tieSwitch1,Length=0.001,Units=km,switch=T !numEQ 315592
new line.CTR853036 bus1=BMT150758507.2,bus2=BMT160767706.2,Phases=1,LineCode=tieSwitch1,Length=0.001,Units=km,switch=T !numEQ 314872
new line.CTR2890 bus1=BMT125212917.1,bus2=BMT164691318.1,Phases=1,LineCode=tieSwitch1,Length=0.001,Units=km,switch=T !numEQ 203139
new line.CTR2897 bus1=BMT125212924.1,bus2=BMT164691281.1,Phases=1,LineCode=tieSwitch1,Length=0.001,Units=km,switch=T !numEQ 203140
new line.CTR29063 bus1=BMT125217649.3,bus2=BMT125218188.3,Phases=1,LineCode=tieSwitch1,Length=0.001,Units=km,switch=T !numEQ 177630
new line.CTR2911 bus1=BMT125212931.1,bus2=BMT164691261.1,Phases=1,LineCode=tieSwitch1,Length=0.001,Units=km,switch=T !numEQ 203141
new line.CTR29126 bus1=BMT125217929.3,bus2=BMT125218104.3,Phases=1,LineCode=tieSwitch1,Length=0.001,Units=km,switch=T !numEQ 177654
new line.CTR29133 bus1=BMT125223508.1,bus2=BMT125223711.1,Phases=1,LineCode=tieSwitch1,Length=0.001,Units=km,switch=T !numEQ 177655
new line.CTR2918 bus1=BMT125211874.1,bus2=BMT164691327.1,Phases=1,LineCode=tieSwitch1,Length=0.001,Units=km,switch=T !numEQ 203142
new line.CTR30302 bus1=BMT120471397.3,bus2=BMT167928837.3,Phases=1,LineCode=tieSwitch1,Length=0.001,Units=km,switch=T !numEQ 177095
new line.CTR30330 bus1=BMT120471383.3,bus2=BMT167928840.3,Phases=1,LineCode=tieSwitch1,Length=0.001,Units=km,switch=T !numEQ 177099
new line.CTR30337 bus1=BMT120471404.3,bus2=BMT167928834.3,Phases=1,LineCode=tieSwitch1,Length=0.001,Units=km,switch=T !numEQ 177100
new line.CTR30463 bus1=BMT120470914.3,bus2=BMT167928910.3,Phases=1,LineCode=tieSwitch1,Length=0.001,Units=km,switch=T !numEQ 177155
new line.CTR35622 bus1=BMT125218734.1,bus2=BMT125218769.1,Phases=1,LineCode=tieSwitch1,Length=0.001,Units=km,switch=T !numEQ 146761
new line.CTR35741 bus1=BMT125219315.1,bus2=BMT149201414.1,Phases=1,LineCode=tieSwitch1,Length=0.001,Units=km,switch=T !numEQ 159112
new line.CTR35769 bus1=BMT125223557.1,bus2=BMT125223571.1,Phases=1,LineCode=tieSwitch1,Length=0.001,Units=km,switch=T !numEQ 159115
new line.CTR357916 bus1=BMT125211258.3,bus2=BMT125211272.3,Phases=1,LineCode=tieSwitch1,Length=0.001,Units=km,switch=T !numEQ 220840
new line.CTR38002 bus1=BMT125219945.1,bus2=BMT149185094.1,Phases=1,LineCode=tieSwitch1,Length=0.001,Units=km,switch=T !numEQ 158589
new line.CTR38079 bus1=BMT125220113.1,bus2=BMT149185115.1,Phases=1,LineCode=tieSwitch1,Length=0.001,Units=km,switch=T !numEQ 158606
new line.CTR38086 bus1=BMT125220092.1,bus2=BMT149185136.1,Phases=1,LineCode=tieSwitch1,Length=0.001,Units=km,switch=T !numEQ 158607
new line.CTR38093 bus1=BMT125219819.1,bus2=BMT149185092.1,Phases=1,LineCode=tieSwitch1,Length=0.001,Units=km,switch=T !numEQ 158608
new line.CTR395128 bus1=BMT128079137.1.2.3,bus2=BMT160765908.1.2.3,Phases=3,LineCode=tieSwitch,Length=0.001,Units=km,switch=T !numEQ 221169
new line.CTR41558 bus1=BMT125210684.3,bus2=BMT172913377.3,Phases=1,LineCode=tieSwitch1,Length=0.001,Units=km,switch=T !numEQ 157694
new line.CTR41586 bus1=BMT125213519.1,bus2=BMT131976051.1,Phases=1,LineCode=tieSwitch1,Length=0.001,Units=km,switch=T !numEQ 157702
new line.CTR418501 bus1=BMT134813662.1,bus2=BMT159845610.1,Phases=1,LineCode=tieSwitch1,Length=0.001,Units=km,switch=T !numEQ 182049
new line.CTR419124 bus1=BMT134908141.1.2.3,bus2=BMT134908155.1.2.3,Phases=3,LineCode=tieSwitch,Length=0.001,Units=km,switch=T !numEQ 295571
new line.CTR419138 bus1=BMT134908442.1.2.3,bus2=BMT134908449.1.2.3,Phases=3,LineCode=tieSwitch,Length=0.001,Units=km,switch=T !numEQ 299011
new line.CTR42475 bus1=BMT125224194.2,bus2=BMT133540005.2,Phases=1,LineCode=tieSwitch1,Length=0.001,Units=km,switch=T !numEQ 157182
new line.CTR425123 bus1=BMT136363140.1,bus2=BMT149184943.1,Phases=1,LineCode=tieSwitch1,Length=0.001,Units=km,switch=T !numEQ 231094
new line.CTR43623 bus1=BMT125213337.1,bus2=BMT164691322.1,Phases=1,LineCode=tieSwitch1,Length=0.001,Units=km,switch=T !numEQ 157109
new line.CTR43630 bus1=BMT125213358.1,bus2=BMT164691325.1,Phases=1,LineCode=tieSwitch1,Length=0.001,Units=km,switch=T !numEQ 157110
new line.CTR43637 bus1=BMT125220022.1,bus2=BMT149185141.1,Phases=1,LineCode=tieSwitch1,Length=0.001,Units=km,switch=T !numEQ 157111
new line.CTR5707010 bus1=BMT2005707117.1.2.3,bus2=BMT2196283043.1.2.3,Phases=3,LineCode=tieSwitch,Length=0.001,Units=km,switch=T !numEQ 
new line.CTR5707116 bus1=BMT2196283073.1.2.3,bus2=BMT2005707117.1.2.3,Phases=3,LineCode=tieSwitch,Length=0.001,Units=km,switch=T !numEQ 
new line.CTR5707182 bus1=BMT2005706902.1.2.3,bus2=BMT2196283073.1.2.3,Phases=3,LineCode=tieSwitch,Length=0.001,Units=km,switch=T !numEQ 
new line.CTR573 bus1=BMT125216396.2,bus2=BMT168183474.2,Phases=1,LineCode=tieSwitch1,Length=0.001,Units=km,switch=T !numEQ 182043
new line.CTR65561 bus1=BMT125218720.1,bus2=BMT125218727.1,Phases=1,LineCode=tieSwitch1,Length=0.001,Units=km,switch=T !numEQ 123925
new line.CTR6768 bus1=BMT125216753.2,bus2=BMT168183490.2,Phases=1,LineCode=tieSwitch1,Length=0.001,Units=km,switch=T !numEQ 178916
new line.CTR72323 bus1=BMT120470235.3,bus2=BMT120470256.3,Phases=1,LineCode=tieSwitch1,Length=0.001,Units=km,switch=T !numEQ 121476
new line.CTR72365 bus1=BMT125219504.1,bus2=BMT149184979.1,Phases=1,LineCode=tieSwitch1,Length=0.001,Units=km,switch=T !numEQ 121498
new line.CTR7363 bus1=BMT125218475.1,bus2=BMT125218496.1,Phases=1,LineCode=tieSwitch1,Length=0.001,Units=km,switch=T !numEQ 177141
new line.CTR7377 bus1=BMT125216025.2,bus2=BMT168183383.2,Phases=1,LineCode=tieSwitch1,Length=0.001,Units=km,switch=T !numEQ 178840
new line.CTR75179 bus1=BMT125221415.1,bus2=BMT149183242.1,Phases=1,LineCode=tieSwitch1,Length=0.001,Units=km,switch=T !numEQ 121000
new line.CTR77139 bus1=BMT160304243.1.2.3,bus2=BMT125209543.1.2.3,Phases=3,LineCode=tieSwitch,Length=0.001,Units=km,switch=T !numEQ 115414
new line.CTR8553 bus1=BMT125215780.2,bus2=BMT168183478.2,Phases=1,LineCode=tieSwitch1,Length=0.001,Units=km,switch=T !numEQ 177753
new line.CTR855991 bus1=BMT151626181.2,bus2=BMT151626470.2,Phases=1,LineCode=tieSwitch1,Length=0.001,Units=km,switch=T !numEQ 315636
new line.CTR856172 bus1=BMT151668438.3,bus2=BMT170455626.3,Phases=1,LineCode=tieSwitch1,Length=0.001,Units=km,switch=T !numEQ 374487
new line.CTR864460 bus1=BMT154065854.2,bus2=BMT172940423.2,Phases=1,LineCode=tieSwitch1,Length=0.001,Units=km,switch=T !numEQ 175865
new line.CTR864827 bus1=BMT154180618.2,bus2=BMT160658129.2,Phases=1,LineCode=tieSwitch1,Length=0.001,Units=km,switch=T !numEQ 234768
new line.CTR869778 bus1=BMT155607107.1,bus2=BMT155607109.1,Phases=1,LineCode=tieSwitch1,Length=0.001,Units=km,switch=T !numEQ 245723
new line.CTR87002 bus1=BMT125210803.1,bus2=BMT165108113.1,Phases=1,LineCode=tieSwitch1,Length=0.001,Units=km,switch=T !numEQ 111390
new line.CTR87009 bus1=BMT125223515.1,bus2=BMT165109146.1,Phases=1,LineCode=tieSwitch1,Length=0.001,Units=km,switch=T !numEQ 111391
new line.CTR873611 bus1=BMT156765155.1,bus2=BMT156765164.1,Phases=1,LineCode=tieSwitch1,Length=0.001,Units=km,switch=T !numEQ 251599
new line.CTR874101 bus1=BMT156892823.1.2.3,bus2=BMT157480787.1.2.3,Phases=3,LineCode=tieSwitch,Length=0.001,Units=km,switch=T !numEQ 180295
new line.CTR888878 bus1=BMT162574211.1.2.3,bus2=BMT172895684.1.2.3,Phases=3,LineCode=tieSwitch,Length=0.001,Units=km,switch=T !numEQ 252959
new line.CTR888882 bus1=BMT172800896.1.2.3,bus2=BMT172801430.1.2.3,Phases=3,LineCode=tieSwitch,Length=0.001,Units=km,switch=T !numEQ 252954
new line.CTR889728 bus1=BMT162962805.1,bus2=BMT166028437.1,Phases=1,LineCode=tieSwitch1,Length=0.001,Units=km,switch=T !numEQ 206772
new line.CTR905366 bus1=BMT168452883.3,bus2=BMT168457364.3,Phases=1,LineCode=tieSwitch1,Length=0.001,Units=km,switch=T !numEQ 274516
new line.CTR905370 bus1=BMT168453957.3,bus2=BMT168454109.3,Phases=1,LineCode=tieSwitch1,Length=0.001,Units=km,switch=T !numEQ 274517
new line.CTR905776 bus1=BMT168600714.2,bus2=BMT168603780.2,Phases=1,LineCode=tieSwitch1,Length=0.001,Units=km,switch=T !numEQ 251978
new line.CTR906174 bus1=BMT168744229.2,bus2=BMT168744231.2,Phases=1,LineCode=tieSwitch1,Length=0.001,Units=km,switch=T !numEQ 242976
new line.CTR906273 bus1=BMT168775489.1,bus2=BMT168775923.1,Phases=1,LineCode=tieSwitch1,Length=0.001,Units=km,switch=T !numEQ 251942
new line.CTR910367 bus1=BMT170195060.1,bus2=BMT170195222.1,Phases=1,LineCode=tieSwitch1,Length=0.001,Units=km,switch=T !numEQ 256489
new line.CTR917007 bus1=BMT172346861.1,bus2=BMT173179893.1,Phases=1,LineCode=tieSwitch1,Length=0.001,Units=km,switch=T !numEQ 326491
new line.CTR917484 bus1=BMT172511676.1.2.3,bus2=BMT172511683.1.2.3,Phases=3,LineCode=tieSwitch,Length=0.001,Units=km,switch=T !numEQ 326760
new line.CTR917642 bus1=BMT173176931.1.2.3,bus2=BMT172560869.1.2.3,Phases=3,LineCode=tieSwitch,Length=0.001,Units=km,switch=T !numEQ 327366
new line.CTR917799 bus1=BMT172607044.3,bus2=BMT172607099.3,Phases=1,LineCode=tieSwitch1,Length=0.001,Units=km,switch=T !numEQ 326217
new line.CTR91979 bus1=BMT125218706.1,bus2=BMT125218790.1,Phases=1,LineCode=tieSwitch1,Length=0.001,Units=km,switch=T !numEQ 109098
new line.CTR91993 bus1=BMT125215962.2,bus2=BMT172613351.2,Phases=1,LineCode=tieSwitch1,Length=0.001,Units=km,switch=T !numEQ 109100
new line.CTR92000 bus1=BMT125221884.2,bus2=BMT125222941.2,Phases=1,LineCode=tieSwitch1,Length=0.001,Units=km,switch=T !numEQ 109101
new line.CTR92770 bus1=BMT125208780.1.2.3,bus2=BMT125208822.1.2.3,Phases=3,LineCode=tieSwitch,Length=0.001,Units=km,switch=T !numEQ 109031
new line.CTR93001 bus1=BMT125209781.1.2.3,bus2=BMT151753649.1.2.3,Phases=3,LineCode=tieSwitch,Length=0.001,Units=km,switch=T !numEQ 109068
new line.CTR93029 bus1=BMT125209837.3,bus2=BMT125210418.3,Phases=1,LineCode=tieSwitch1,Length=0.001,Units=km,switch=T !numEQ 109073
new line.CTR93050 bus1=BMT125210838.1,bus2=BMT125210845.1,Phases=1,LineCode=tieSwitch1,Length=0.001,Units=km,switch=T !numEQ 109077
new line.CTR93057 bus1=BMT125210915.1,bus2=BMT134813648.1,Phases=1,LineCode=tieSwitch1,Length=0.001,Units=km,switch=T !numEQ 109080
new line.CTR93113 bus1=BMT125221919.2,bus2=BMT160681630.2,Phases=1,LineCode=tieSwitch1,Length=0.001,Units=km,switch=T !numEQ 109102
new line.CTR93120 bus1=BMT125221688.2,bus2=BMT125223389.2,Phases=1,LineCode=tieSwitch1,Length=0.001,Units=km,switch=T !numEQ 109103
new line.CTR98482 bus1=BMT125210726.3,bus2=BMT172922558.3,Phases=1,LineCode=tieSwitch1,Length=0.001,Units=km,switch=T !numEQ 107137
new line.CTR98937 bus1=BMT125210768.3,bus2=BMT172935233.3,Phases=1,LineCode=tieSwitch1,Length=0.001,Units=km,switch=T !numEQ 106615
new line.CTR98951 bus1=BMT125208794.1.2.3,bus2=BMT167097812.1.2.3,Phases=3,LineCode=tieSwitch,Length=0.001,Units=km,switch=T !numEQ 106617
new line.CTR9911 bus1=BMT125223214.2,bus2=BMT170625804.2,Phases=1,LineCode=tieSwitch1,Length=0.001,Units=km,switch=T !numEQ 157448
new line.CTR9918 bus1=BMT125223228.2,bus2=BMT125223270.2,Phases=1,LineCode=tieSwitch1,Length=0.001,Units=km,switch=T !numEQ 157449
new line.CTRR24331 bus1=BMT143849864.1.2.3,bus2=BMT143849857.1.2.3,Phases=3,LineCode=tieSwitch,Length=0.001,Units=km,switch=T !numEQ 301399
open line.CTRR24331 term=1
new Recloser.R24331 monitoredobj='line.CTRR24331' monitoredterm=1,numfast=1,phasedelayed='VERY_INV',grounddelayed='VERY_INV',phasetrip=280,TDPhDelayed=1,GroundTrip=45,TDGrDelayed=14,shots=1,recloseintervals=(10, 20, 20)
new line.CTRR2792 bus1=BMT125218237.1,bus2=BMT138566866.1,Phases=1,LineCode=tieSwitch1,Length=0.001,Units=km,switch=T !numEQ 192585
new Recloser.R2792 monitoredobj='line.CTRR2792' monitoredterm=1,numfast=1,phasedelayed='VERY_INV',grounddelayed='VERY_INV',phasetrip=280,TDPhDelayed=1,GroundTrip=45,TDGrDelayed=14,shots=1,recloseintervals=(10, 20, 20)
new line.CTRR3373 bus1=BMT125210621.1.2.3,bus2=BMT172938501.1.2.3,Phases=3,LineCode=tieSwitch,Length=0.001,Units=km,switch=T !numEQ 129557
new Recloser.R3373 monitoredobj='line.CTRR3373' monitoredterm=1,numfast=1,phasedelayed='VERY_INV',grounddelayed='VERY_INV',phasetrip=280,TDPhDelayed=1,GroundTrip=45,TDGrDelayed=14,shots=1,recloseintervals=(10, 20, 20)
new line.CTRR40836 bus1=BMT168609100.1.2.3,bus2=BMT168608971.1.2.3,Phases=3,LineCode=tieSwitch,Length=0.001,Units=km,switch=T !numEQ 273081
new Recloser.R40836 monitoredobj='line.CTRR40836' monitoredterm=1,numfast=1,phasedelayed='VERY_INV',grounddelayed='VERY_INV',phasetrip=280,TDPhDelayed=1,GroundTrip=45,TDGrDelayed=14,shots=1,recloseintervals=(10, 20, 20)
new line.CTRR8245 bus1=BMT125209767.1.2.3,bus2=BMT172666447.1.2.3,Phases=3,LineCode=tieSwitch,Length=0.001,Units=km,switch=T !numEQ 230825
new Recloser.R8245 monitoredobj='line.CTRR8245' monitoredterm=1,numfast=1,phasedelayed='VERY_INV',grounddelayed='VERY_INV',phasetrip=280,TDPhDelayed=1,GroundTrip=45,TDGrDelayed=14,shots=1,recloseintervals=(10, 20, 20)
new line.CTR863408 bus1=BMT153733830.3,bus2=BMT153733863.3,Phases=1,LineCode=tieSwitch1,Length=0.001,Units=km,switch=T !numEQ 317418
new line.CTR869093 bus1=BMT155387705.2,bus2=BMT172404270.2,Phases=1,LineCode=tieSwitch1,Length=0.001,Units=km,switch=T !numEQ 236089
new line.CTR875386 bus1=BMT157299829.1.2.3,bus2=BMT157299830.1.2.3,Phases=3,LineCode=tieSwitch,Length=0.001,Units=km,switch=T !numEQ 243491
new line.CTR882444 bus1=BMT159815183.1,bus2=BMT164691433.1,Phases=1,LineCode=tieSwitch1,Length=0.001,Units=km,switch=T !numEQ 206778
new line.CTR886236 bus1=BMT161464861.1,bus2=BMT161483557.1,Phases=1,LineCode=tieSwitch1,Length=0.001,Units=km,switch=T !numEQ 240851
new line.CTR887571 bus1=BMT161946602.1,bus2=BMT162315976.1,Phases=1,LineCode=tieSwitch1,Length=0.001,Units=km,switch=T !numEQ 242962
new line.CTR895210 bus1=BMT164874215.1,bus2=BMT164877169.1,Phases=1,LineCode=tieSwitch1,Length=0.001,Units=km,switch=T !numEQ 242626
new line.CTR895449 bus1=BMT164936834.3,bus2=BMT167929001.3,Phases=1,LineCode=tieSwitch1,Length=0.001,Units=km,switch=T !numEQ 258290
new line.CTR895720 bus1=BMT165033681.1,bus2=BMT165033683.1,Phases=1,LineCode=tieSwitch1,Length=0.001,Units=km,switch=T !numEQ 263779
new line.CTR895958 bus1=BMT165108126.1,bus2=BMT165108845.1,Phases=1,LineCode=tieSwitch1,Length=0.001,Units=km,switch=T !numEQ 245694
new line.CTR895962 bus1=BMT165109155.1,bus2=BMT165109949.1,Phases=1,LineCode=tieSwitch1,Length=0.001,Units=km,switch=T !numEQ 243831
new line.CTR896324 bus1=BMT172897888.1.2.3,bus2=BMT165235063.1.2.3,Phases=3,LineCode=tieSwitch,Length=0.001,Units=km,switch=T !numEQ 178985
new line.CTR901847 bus1=BMT167249424.1,bus2=BMT167249436.1,Phases=1,LineCode=tieSwitch1,Length=0.001,Units=km,switch=T !numEQ 263365
new line.CTR901897 bus1=BMT167270207.3,bus2=BMT167929003.3,Phases=1,LineCode=tieSwitch1,Length=0.001,Units=km,switch=T !numEQ 266031
new line.CTR902287 bus1=BMT167372301.1,bus2=BMT167372304.1,Phases=1,LineCode=tieSwitch1,Length=0.001,Units=km,switch=T !numEQ 268111
new line.CTR908827 bus1=BMT169713823.2,bus2=BMT169731905.2,Phases=1,LineCode=tieSwitch1,Length=0.001,Units=km,switch=T !numEQ 249060
...