CemigDFeeders/SFIQ410/SFIQ410Transformadores.dss
new transformer.1026990 Phases=1,Windings=3,Buses=[BMT168802520.1 BBT95239778.1.0 BBT95239778.0.2],Conns=[wye wye wye],kvs=[7.967 0.12 0.12],kvas=[5.000000000 5.000000000 5.000000000],Taps=[1,1.042000000,1.042000000],%loadloss=1.900000000,%noloadloss=0.600000000
new transformer.1056936 Phases=1,Windings=3,Buses=[BMT127586568.3 BBT127586701.1.0 BBT127586701.0.2],Conns=[wye wye wye],kvs=[7.967 0.12 0.12],kvas=[10.000000000 10.000000000 10.000000000],Taps=[1,1.010000000,1.010000000],%loadloss=1.800000000,%noloadloss=0.450000000
new transformer.1057370 Phases=1,Windings=3,Buses=[BMT153694278.3 BBT127755793.1.0 BBT127755793.0.2],Conns=[wye wye wye],kvs=[7.967 0.12 0.12],kvas=[15.000000000 15.000000000 15.000000000],Taps=[1,1.020000000,1.020000000],%loadloss=1.600000000,%noloadloss=0.400000000
new transformer.1071741 Phases=1,Windings=3,Buses=[BMT161866966.1 BBT133779965.1.0 BBT133779965.0.2],Conns=[wye wye wye],kvs=[7.967 0.12 0.12],kvas=[10.000000000 10.000000000 10.000000000],Taps=[1,1.020000000,1.020000000],%loadloss=1.800000000,%noloadloss=0.450000000
new transformer.1101498 Phases=1,Windings=3,Buses=[BMT157435062.1 BBT141903437.1.0 BBT141903437.0.2],Conns=[wye wye wye],kvs=[7.967 0.12 0.12],kvas=[35.000000000 35.000000000 35.000000000],Taps=[1,1.010000000,1.010000000],%loadloss=1.293000000,%noloadloss=0.342857000
new transformer.1391970 Phases=3,Windings=2,Buses=[BMT148521962.1.2.3 BBT148520527.1.2.3.0],Conns=[delta wye],kvs=[13.8 0.22],kvas=[45.000000000 45.000000000],Taps=[1,1.000000000],%loadloss=1.522000000,%noloadloss=0.377777000
new transformer.1397246 Phases=1,Windings=3,Buses=[BMT159057264.1 BBT149736002.1.0 BBT149736002.0.2],Conns=[wye wye wye],kvs=[7.967 0.12 0.12],kvas=[10.000000000 10.000000000 10.000000000],Taps=[1,1.020000000,1.020000000],%loadloss=1.800000000,%noloadloss=0.450000000
new transformer.1397324 Phases=1,Windings=3,Buses=[BMT168454111.3 BBT149751440.1.0 BBT149751440.0.2],Conns=[wye wye wye],kvs=[7.967 0.12 0.12],kvas=[10.000000000 10.000000000 10.000000000],Taps=[1,1.000000000,1.000000000],%loadloss=1.800000000,%noloadloss=0.450000000
new transformer.1397328 Phases=3,Windings=2,Buses=[BMT149761049.1.2.3 BBT149752432.1.2.3.0],Conns=[delta wye],kvs=[13.8 0.22],kvas=[45.000000000 45.000000000],Taps=[1,1.010000000],%loadloss=1.522000000,%noloadloss=0.377777000
new transformer.1397339 Phases=3,Windings=2,Buses=[BMT149761039.1.2.3 BBT149755353.1.2.3.0],Conns=[delta wye],kvs=[13.8 0.22],kvas=[45.000000000 45.000000000],Taps=[1,1.010000000],%loadloss=1.522000000,%noloadloss=0.377777000
new transformer.1397340 Phases=3,Windings=2,Buses=[BMT149761041.1.2.3 BBT149755392.1.2.3.0],Conns=[delta wye],kvs=[13.8 0.22],kvas=[45.000000000 45.000000000],Taps=[1,1.010000000],%loadloss=1.522000000,%noloadloss=0.377777000
new transformer.1397341 Phases=3,Windings=2,Buses=[BMT149761043.1.2.3 BBT149755470.1.2.3.0],Conns=[delta wye],kvs=[13.8 0.22],kvas=[45.000000000 45.000000000],Taps=[1,1.010000000],%loadloss=1.522000000,%noloadloss=0.377777000
new transformer.1397342 Phases=3,Windings=2,Buses=[BMT149761044.1.2.3 BBT149755526.1.2.3.0],Conns=[delta wye],kvs=[13.8 0.22],kvas=[45.000000000 45.000000000],Taps=[1,1.010000000],%loadloss=1.522000000,%noloadloss=0.377777000
new transformer.1397343 Phases=3,Windings=2,Buses=[BMT149761048.1.2.3 BBT149755587.1.2.3.0],Conns=[delta wye],kvs=[13.8 0.22],kvas=[45.000000000 45.000000000],Taps=[1,1.010000000],%loadloss=1.522000000,%noloadloss=0.377777000
new transformer.1397344 Phases=3,Windings=2,Buses=[BMT149761047.1.2.3 BBT149755654.1.2.3.0],Conns=[delta wye],kvs=[13.8 0.22],kvas=[45.000000000 45.000000000],Taps=[1,1.010000000],%loadloss=1.522000000,%noloadloss=0.377777000
new transformer.1397347 Phases=3,Windings=2,Buses=[BMT149761046.1.2.3 BBT149756685.1.2.3.0],Conns=[delta wye],kvs=[13.8 0.22],kvas=[45.000000000 45.000000000],Taps=[1,1.010000000],%loadloss=1.522000000,%noloadloss=0.377777000
new transformer.1397349 Phases=3,Windings=2,Buses=[BMT149761050.1.2.3 BBT149757145.1.2.3.0],Conns=[delta wye],kvs=[13.8 0.22],kvas=[45.000000000 45.000000000],Taps=[1,1.010000000],%loadloss=1.522000000,%noloadloss=0.377777000
new transformer.1397450 Phases=1,Windings=3,Buses=[BMT159956696.3 BBT149777606.1.0 BBT149777606.0.2],Conns=[wye wye wye],kvs=[7.967 0.12 0.12],kvas=[10.000000000 10.000000000 10.000000000],Taps=[1,1.020000000,1.020000000],%loadloss=1.800000000,%noloadloss=0.450000000
new transformer.1397488 Phases=1,Windings=3,Buses=[BMT167928847.3 BBT149786810.1.0 BBT149786810.0.2],Conns=[wye wye wye],kvs=[7.967 0.12 0.12],kvas=[10.000000000 10.000000000 10.000000000],Taps=[1,1.042000000,1.042000000],%loadloss=1.800000000,%noloadloss=0.450000000
new transformer.1397536 Phases=1,Windings=3,Buses=[BMT160765910.2 BBT149793788.1.0 BBT149793788.0.2],Conns=[wye wye wye],kvs=[7.967 0.12 0.12],kvas=[10.000000000 10.000000000 10.000000000],Taps=[1,1.010000000,1.010000000],%loadloss=1.800000000,%noloadloss=0.450000000
new transformer.1404416 Phases=1,Windings=3,Buses=[BMT151669651.3 BBT151518375.1.0 BBT151518375.0.2],Conns=[wye wye wye],kvs=[7.967 0.12 0.12],kvas=[15.000000000 15.000000000 15.000000000],Taps=[1,1.020000000,1.020000000],%loadloss=1.600000000,%noloadloss=0.400000000
new transformer.1404417 Phases=1,Windings=3,Buses=[BMT151669650.3 BBT151518430.1.0 BBT151518430.0.2],Conns=[wye wye wye],kvs=[7.967 0.12 0.12],kvas=[15.000000000 15.000000000 15.000000000],Taps=[1,1.020000000,1.020000000],%loadloss=1.600000000,%noloadloss=0.400000000
...