CemigDFeeders/SFIQ410/SFIQ410SegmentosBT.dss
new line.10051236 bus1=BBT11287527.1.2.0,bus2=BBT146554608.1.2.0,Phases=2,Linecode=BT807_BT807_4_2_3,Length=0.032262000,Units=km
new line.10051243 bus1=BBT146554608.1.2.0,bus2=BBT146554615.1.2.0,Phases=2,Linecode=BT807_BT807_4_2_3,Length=0.030900000,Units=km
new line.10051250 bus1=BBT146554615.1.2.0,bus2=BBT146554622.1.2.0,Phases=2,Linecode=BT807_BT807_4_2_3,Length=0.030900000,Units=km
new line.10051257 bus1=BBT146554622.1.2.0,bus2=BBT146554629.1.2.0,Phases=2,Linecode=BT807_BT807_4_2_3,Length=0.029542000,Units=km
new line.10051649 bus1=BBT146568972.1.2.0,bus2=BBT146568979.1.2.0,Phases=2,Linecode=BT518_BT518_7_2_1,Length=0.000501000,Units=km
new line.10051656 bus1=BBT146568979.1.2.0,bus2=BBT5695500.1.2.0,Phases=2,Linecode=BT803_BT803_4_2_4,Length=0.032571000,Units=km
new line.10051663 bus1=BBT146568979.1.2.0,bus2=BBT146568993.1.2.0,Phases=2,Linecode=BT803_BT803_4_2_4,Length=0.033315000,Units=km
new line.10055247 bus1=BBT3467435.1.2.0,bus2=BBT146691871.1.2.0,Phases=2,Linecode=BT807_BT807_4_2_3,Length=0.035917000,Units=km
new line.18734996 bus1=BBT149521283.1.2.0,bus2=BBT149521284.1.2.0,Phases=2,Linecode=BT521_BT521_7_2_1,Length=0.000501000,Units=km
new line.18737947 bus1=BBT149633670.1.2.0,bus2=BBT149633671.1.2.0,Phases=2,Linecode=BT508_BT508_7_2_1,Length=0.000501000,Units=km
new line.18741651 bus1=BBT149736002.1.2.0,bus2=BBT149736003.1.2.0,Phases=2,Linecode=BT521_BT521_7_2_1,Length=0.000501000,Units=km
new line.18742281 bus1=BBT4126513.1.2.0,bus2=BBT149749193.1.2.0,Phases=2,Linecode=BT807_BT807_4_2_3,Length=0.024708000,Units=km
new line.18742325 bus1=BBT149749641.1.2.0,bus2=BBT816115.1.2.0,Phases=2,Linecode=BT107_BT107_7_2_1,Length=0.028172000,Units=km
new line.18742390 bus1=BBT2360553.1.2.0,bus2=BBT149750510.1.2.0,Phases=2,Linecode=BT807_BT807_4_2_3,Length=0.033540000,Units=km
new line.18742392 bus1=BBT149750510.1.2.0,bus2=BBT149750530.1.2.0,Phases=2,Linecode=BT807_BT807_4_2_3,Length=0.033255000,Units=km
new line.18742393 bus1=BBT149750530.1.2.0,bus2=BBT149750535.1.2.0,Phases=2,Linecode=BT807_BT807_4_2_3,Length=0.037123000,Units=km
new line.18742423 bus1=BBT149750535.1.2.0,bus2=BBT149751040.1.2.0,Phases=2,Linecode=BT807_BT807_4_2_3,Length=0.022482000,Units=km
new line.18742426 bus1=BBT149751440.1.2.0,bus2=BBT149751441.1.2.0,Phases=2,Linecode=BT521_BT521_7_2_1,Length=0.000501000,Units=km
new line.18742453 bus1=BBT149752432.1.2.3.0,bus2=BBT149752433.1.2.3.0,Phases=3,Linecode=BT518_BT518_7_3_1,Length=0.000501000,Units=km
new line.18742471 bus1=BBT149752433.1.2.3.0,bus2=BBT149753126.1.2.3.0,Phases=3,Linecode=BT803_BT803_4_3_4,Length=0.036907000,Units=km
new line.18742472 bus1=BBT149753126.1.2.3.0,bus2=BBT149753127.1.2.3.0,Phases=3,Linecode=BT803_BT803_4_3_4,Length=0.036907000,Units=km
new line.18742475 bus1=BBT149753127.1.2.3.0,bus2=BBT149753131.1.2.3.0,Phases=3,Linecode=BT803_BT803_4_3_4,Length=0.030029000,Units=km
new line.18742476 bus1=BBT149753131.1.2.3.0,bus2=BBT149753144.1.2.3.0,Phases=3,Linecode=BT803_BT803_4_3_4,Length=0.025030000,Units=km
new line.18742478 bus1=BBT149753144.1.2.3.0,bus2=BBT149753170.1.2.3.0,Phases=3,Linecode=BT803_BT803_4_3_4,Length=0.022032000,Units=km
new line.18742479 bus1=BBT149752433.1.2.3.0,bus2=BBT149753187.1.2.3.0,Phases=3,Linecode=BT803_BT803_4_3_4,Length=0.038291000,Units=km
new line.18742480 bus1=BBT149753187.1.2.3.0,bus2=BBT149753188.1.2.3.0,Phases=3,Linecode=BT803_BT803_4_3_4,Length=0.022835000,Units=km
new line.18742481 bus1=BBT149753188.1.2.3.0,bus2=BBT149753189.1.2.3.0,Phases=3,Linecode=BT803_BT803_4_3_4,Length=0.024607000,Units=km
new line.18742482 bus1=BBT149753189.1.2.3.0,bus2=BBT149753216.1.2.3.0,Phases=3,Linecode=BT803_BT803_4_3_4,Length=0.022482000,Units=km
new line.18742484 bus1=BBT149753189.1.2.3.0,bus2=BBT149753272.1.2.3.0,Phases=3,Linecode=BT803_BT803_4_3_4,Length=0.037605000,Units=km
new line.18742487 bus1=BBT149753216.1.2.3.0,bus2=BBT149753312.1.2.3.0,Phases=3,Linecode=BT803_BT803_4_3_4,Length=0.022370000,Units=km
new line.18742494 bus1=BBT149753189.1.2.3.0,bus2=BBT149753346.1.2.3.0,Phases=3,Linecode=BT803_BT803_4_3_4,Length=0.031919000,Units=km
new line.18742495 bus1=BBT149753346.1.2.3.0,bus2=BBT149753373.1.2.3.0,Phases=3,Linecode=BT803_BT803_4_3_4,Length=0.031077000,Units=km
new line.18742506 bus1=BBT149753187.1.2.3.0,bus2=BBT149753543.1.2.3.0,Phases=3,Linecode=BT803_BT803_4_3_4,Length=0.035000000,Units=km
new line.18742507 bus1=BBT149753543.1.2.3.0,bus2=BBT149753559.1.2.3.0,Phases=3,Linecode=BT803_BT803_4_3_4,Length=0.039131000,Units=km
new line.18742508 bus1=BBT149753559.1.2.3.0,bus2=BBT149753587.1.2.3.0,Phases=3,Linecode=BT803_BT803_4_3_4,Length=0.039677000,Units=km
new line.18742560 bus1=BBT149755353.1.2.3.0,bus2=BBT149755354.1.2.3.0,Phases=3,Linecode=BT518_BT518_7_3_1,Length=0.000501000,Units=km
new line.18742561 bus1=BBT149755392.1.2.3.0,bus2=BBT149755393.1.2.3.0,Phases=3,Linecode=BT518_BT518_7_3_1,Length=0.000501000,Units=km
...